Circuit: *** SPICE deck for cell 14b_AND{sch} from library ADCD_Hipperdinger

Warning: Multiple definitions of model "pmost81" Type: BSIM3
Warning: Multiple definitions of model "pmost51" Type: BSIM3
Warning: Multiple definitions of model "pmost42" Type: BSIM3
Warning: Multiple definitions of model "pmost39" Type: BSIM3
Warning: Multiple definitions of model "pmost36" Type: BSIM3
Warning: Multiple definitions of model "nmost81" Type: BSIM3
Warning: Multiple definitions of model "nmost51" Type: BSIM3
Warning: Multiple definitions of model "nmost42" Type: BSIM3
Warning: Multiple definitions of model "nmost39" Type: BSIM3
Warning: Multiple definitions of model "nmost36" Type: BSIM3
Ignoring BSIM parameter ACM
Ignoring BSIM parameter HDIF
Ignoring BSIM parameter TLEV
Ignoring BSIM parameter ACM
Ignoring BSIM parameter HDIF
Ignoring BSIM parameter TLEV
WARNING: Node _6B_NAND@0:NAND@0:PMOS-4@1_B is floating.
WARNING: Node _6B_NAND@0:NAND@1:PMOS-4@1_B is floating.
WARNING: Node _6B_NAND@0:NAND@2:PMOS-4@1_B is floating.
WARNING: Node _6B_NAND@0:NAND@3:PMOS-4@1_B is floating.
WARNING: Node _6B_NAND@0:NOR@0:PMOS-4@2_B is floating.
WARNING: Node _6B_NAND@1:NAND@0:PMOS-4@1_B is floating.
WARNING: Node _6B_NAND@1:NAND@1:PMOS-4@1_B is floating.
WARNING: Node _6B_NAND@1:NAND@2:PMOS-4@1_B is floating.
WARNING: Node _6B_NAND@1:NAND@3:PMOS-4@1_B is floating.
WARNING: Node _6B_NAND@1:NOR@0:PMOS-4@2_B is floating.
WARNING: Node NAND@3:PMOS-4@1_B is floating.
WARNING: Node NAND@4:PMOS-4@1_B is floating.
WARNING: Node NOR@0:PMOS-4@2_B is floating.

WARNING: Less than two connections to node _6B_NAND@0:NAND@0:PMOS-4@1_B.  This node is used by M:_6B_NAND@0:NAND@0:PMOS-4@1.
WARNING: Less than two connections to node _6B_NAND@0:NAND@1:PMOS-4@1_B.  This node is used by M:_6B_NAND@0:NAND@1:PMOS-4@1.
WARNING: Less than two connections to node _6B_NAND@0:NAND@2:PMOS-4@1_B.  This node is used by M:_6B_NAND@0:NAND@2:PMOS-4@1.
WARNING: Less than two connections to node _6B_NAND@0:NAND@3:PMOS-4@1_B.  This node is used by M:_6B_NAND@0:NAND@3:PMOS-4@1.
WARNING: Less than two connections to node _6B_NAND@0:NOR@0:PMOS-4@2_B.  This node is used by M:_6B_NAND@0:NOR@0:PMOS-4@2.
WARNING: Less than two connections to node _6B_NAND@1:NAND@0:PMOS-4@1_B.  This node is used by M:_6B_NAND@1:NAND@0:PMOS-4@1.
WARNING: Less than two connections to node _6B_NAND@1:NAND@1:PMOS-4@1_B.  This node is used by M:_6B_NAND@1:NAND@1:PMOS-4@1.
WARNING: Less than two connections to node _6B_NAND@1:NAND@2:PMOS-4@1_B.  This node is used by M:_6B_NAND@1:NAND@2:PMOS-4@1.
WARNING: Less than two connections to node _6B_NAND@1:NAND@3:PMOS-4@1_B.  This node is used by M:_6B_NAND@1:NAND@3:PMOS-4@1.
WARNING: Less than two connections to node _6B_NAND@1:NOR@0:PMOS-4@2_B.  This node is used by M:_6B_NAND@1:NOR@0:PMOS-4@2.
WARNING: Less than two connections to node NAND@3:PMOS-4@1_B.  This node is used by M:NAND@3:PMOS-4@1.
WARNING: Less than two connections to node NAND@4:PMOS-4@1_B.  This node is used by M:NAND@4:PMOS-4@1.
WARNING: Less than two connections to node NOR@0:PMOS-4@2_B.  This node is used by M:NOR@0:PMOS-4@2.
Warning: Pd = 0 is less than W.
Warning: Ps = 0 is less than W.
Warning: Pd = 0 is less than W.
Warning: Ps = 0 is less than W.
Direct Newton iteration for .op point succeeded.

Date: Tue Jul 02 14:26:23 2024
Total elapsed time: 0.234 seconds.

tnom = 27
temp = 27
method = modified trap
totiter = 6693
traniter = 6663
tranpoints = 2412
accept = 2056
rejected = 356
matrix size = 73
fillins = 62
solver = Normal
Thread vector: 25.9/14.8[6] 12.2/4.2[6] 4.0/2.8[6] 0.3/1.9[1]  2592/500
Matrix Compiler1: 8.88 KB object code size  2.0/1.2/[0.9]
Matrix Compiler2: 8.80 KB object code size  1.0/2.2/[0.4]

