Circuit: *** SPICE deck for cell AND{sch} from library ADCD_Hipperdinger

Ignoring BSIM parameter ACM
Ignoring BSIM parameter HDIF
Ignoring BSIM parameter TLEV
Ignoring BSIM parameter ACM
Ignoring BSIM parameter HDIF
Ignoring BSIM parameter TLEV
Fatal Error: No analysis request found.
