Circuit: *** SPICE deck for cell CLK_noSolp{sch} from library ADCD_Hipperdinger

Warning: Multiple definitions of model "pmost81" Type: BSIM3
Warning: Multiple definitions of model "pmost51" Type: BSIM3
Warning: Multiple definitions of model "pmost42" Type: BSIM3
Warning: Multiple definitions of model "pmost39" Type: BSIM3
Warning: Multiple definitions of model "pmost36" Type: BSIM3
Warning: Multiple definitions of model "nmost81" Type: BSIM3
Warning: Multiple definitions of model "nmost51" Type: BSIM3
Warning: Multiple definitions of model "nmost42" Type: BSIM3
Warning: Multiple definitions of model "nmost39" Type: BSIM3
Warning: Multiple definitions of model "nmost36" Type: BSIM3
Ignoring BSIM parameter ACM
Ignoring BSIM parameter HDIF
Ignoring BSIM parameter TLEV
Ignoring BSIM parameter ACM
Ignoring BSIM parameter HDIF
Ignoring BSIM parameter TLEV
WARNING: Node NOR@0:PMOS-4@2_B is floating.
WARNING: Node NOR@1:PMOS-4@2_B is floating.

WARNING: Less than two connections to node NOR@0:PMOS-4@2_B.  This node is used by M:NOR@0:PMOS-4@2.
WARNING: Less than two connections to node NOR@1:PMOS-4@2_B.  This node is used by M:NOR@1:PMOS-4@2.
Warning: Pd = 0 is less than W.
Warning: Ps = 0 is less than W.
Warning: Pd = 0 is less than W.
Warning: Ps = 0 is less than W.
Direct Newton iteration for .op point succeeded.

Date: Tue Jun 25 17:34:22 2024
Total elapsed time: 0.310 seconds.

tnom = 27
temp = 27
method = modified trap
totiter = 6110
traniter = 6084
tranpoints = 1970
accept = 1717
rejected = 253
matrix size = 17
fillins = 14
solver = Normal
Thread vector: 26.5/13.5[2] 5.5/3.1[2] 1.7/1.7[1] 0.1/1.3[1]  2592/500
Matrix Compiler1: 2.38 KB object code size  0.9/0.5/[0.3]
Matrix Compiler2: 2.08 KB object code size  0.4/0.7/[0.3]

