Circuit: *** SPICE deck for cell COMB{sch} from library ADCD_Hipperdinger

Warning: Multiple definitions of model "pmost81" Type: BSIM3
Warning: Multiple definitions of model "pmost51" Type: BSIM3
Warning: Multiple definitions of model "pmost42" Type: BSIM3
Warning: Multiple definitions of model "pmost39" Type: BSIM3
Warning: Multiple definitions of model "pmost36" Type: BSIM3
Warning: Multiple definitions of model "nmost81" Type: BSIM3
Warning: Multiple definitions of model "nmost51" Type: BSIM3
Warning: Multiple definitions of model "nmost42" Type: BSIM3
Warning: Multiple definitions of model "nmost39" Type: BSIM3
Warning: Multiple definitions of model "nmost36" Type: BSIM3
Ignoring BSIM parameter ACM
Ignoring BSIM parameter HDIF
Ignoring BSIM parameter TLEV
Ignoring BSIM parameter ACM
Ignoring BSIM parameter HDIF
Ignoring BSIM parameter TLEV
WARNING: Node NAND@0:PMOS-4@1_B is floating.
WARNING: Node NOR@0:PMOS-4@2_B is floating.
WARNING: Node XOR@0:NAND@0:PMOS-4@1_B is floating.
WARNING: Node XOR@0:NAND@1:PMOS-4@1_B is floating.
WARNING: Node XOR@0:NAND@2:PMOS-4@1_B is floating.
WARNING: Node XOR@0:NAND@3:PMOS-4@1_B is floating.

WARNING: Less than two connections to node NAND@0:PMOS-4@1_B.  This node is used by M:NAND@0:PMOS-4@1.
WARNING: Less than two connections to node NOR@0:PMOS-4@2_B.  This node is used by M:NOR@0:PMOS-4@2.
WARNING: Less than two connections to node XOR@0:NAND@0:PMOS-4@1_B.  This node is used by M:XOR@0:NAND@0:PMOS-4@1.
WARNING: Less than two connections to node XOR@0:NAND@1:PMOS-4@1_B.  This node is used by M:XOR@0:NAND@1:PMOS-4@1.
WARNING: Less than two connections to node XOR@0:NAND@2:PMOS-4@1_B.  This node is used by M:XOR@0:NAND@2:PMOS-4@1.
WARNING: Less than two connections to node XOR@0:NAND@3:PMOS-4@1_B.  This node is used by M:XOR@0:NAND@3:PMOS-4@1.
Warning: Pd = 0 is less than W.
Warning: Ps = 0 is less than W.
Warning: Pd = 0 is less than W.
Warning: Ps = 0 is less than W.
Direct Newton iteration for .op point succeeded.

Date: Wed May 22 20:36:30 2024
Total elapsed time: 0.276 seconds.

tnom = 27
temp = 27
method = modified trap
totiter = 3712
traniter = 3680
tranpoints = 1437
accept = 1330
rejected = 107
matrix size = 29
fillins = 22
solver = Normal
Thread vector: 20.2/14.7[2] 4.5/3.1[2] 1.2/1.7[1] 0.1/1.3[1]  2592/500
Matrix Compiler1: 4.13 KB object code size  0.6/0.3/[0.2]
Matrix Compiler2: 3.56 KB object code size  0.2/0.4/[0.2]

