Circuit: *** SPICE deck for cell Counter_module{sch} from library ADCD_Hipperdinger

Warning: Multiple definitions of model "pmost81" Type: BSIM3
Warning: Multiple definitions of model "pmost51" Type: BSIM3
Warning: Multiple definitions of model "pmost42" Type: BSIM3
Warning: Multiple definitions of model "pmost39" Type: BSIM3
Warning: Multiple definitions of model "pmost36" Type: BSIM3
Warning: Multiple definitions of model "nmost81" Type: BSIM3
Warning: Multiple definitions of model "nmost51" Type: BSIM3
Warning: Multiple definitions of model "nmost42" Type: BSIM3
Warning: Multiple definitions of model "nmost39" Type: BSIM3
Warning: Multiple definitions of model "nmost36" Type: BSIM3
Ignoring BSIM parameter ACM
Ignoring BSIM parameter HDIF
Ignoring BSIM parameter TLEV
Ignoring BSIM parameter ACM
Ignoring BSIM parameter HDIF
Ignoring BSIM parameter TLEV
WARNING: Node _3B_NAND@0:NAND@0:PMOS-4@1_B is floating.
WARNING: Node _3B_NAND@0:NAND@1:PMOS-4@1_B is floating.
WARNING: Node _3B_NAND@0:NAND@2:PMOS-4@1_B is floating.
WARNING: Node _3B_NAND@0:NAND@3:PMOS-4@1_B is floating.
WARNING: Node _3B_NAND@0:NOR@0:PMOS-4@2_B is floating.
WARNING: Node _3B_COUNT@0:FFD_CLRN@0:CLK_NOSO@0:NOR@0:PMOS-4@2_B is floating.
WARNING: Node _3B_COUNT@0:FFD_CLRN@0:CLK_NOSO@0:NOR@1:PMOS-4@2_B is floating.
WARNING: Node _3B_COUNT@0:FFD_CLRN@0:NAND@0:PMOS-4@1_B is floating.
WARNING: Node _3B_COUNT@0:FFD_CLRN@0:NAND@1:PMOS-4@1_B is floating.
WARNING: Node _3B_COUNT@0:FFD_CLRN@0:OR_NOTAN@0:NOR@0:PMOS-4@2_B is floating.
WARNING: Node _3B_COUNT@0:FFD_CLRN@0:OR_NOTAN@1:NOR@0:PMOS-4@2_B is floating.
WARNING: Node _3B_COUNT@0:FFD_CLRN@1:CLK_NOSO@0:NOR@0:PMOS-4@2_B is floating.
WARNING: Node _3B_COUNT@0:FFD_CLRN@1:CLK_NOSO@0:NOR@1:PMOS-4@2_B is floating.
WARNING: Node _3B_COUNT@0:FFD_CLRN@1:NAND@0:PMOS-4@1_B is floating.
WARNING: Node _3B_COUNT@0:FFD_CLRN@1:NAND@1:PMOS-4@1_B is floating.
WARNING: Node _3B_COUNT@0:FFD_CLRN@1:OR_NOTAN@0:NOR@0:PMOS-4@2_B is floating.
WARNING: Node _3B_COUNT@0:FFD_CLRN@1:OR_NOTAN@1:NOR@0:PMOS-4@2_B is floating.
WARNING: Node _3B_COUNT@0:FFD_CLRN@2:CLK_NOSO@0:NOR@0:PMOS-4@2_B is floating.
WARNING: Node _3B_COUNT@0:FFD_CLRN@2:CLK_NOSO@0:NOR@1:PMOS-4@2_B is floating.
WARNING: Node _3B_COUNT@0:FFD_CLRN@2:NAND@0:PMOS-4@1_B is floating.
WARNING: Node _3B_COUNT@0:FFD_CLRN@2:NAND@1:PMOS-4@1_B is floating.
WARNING: Node _3B_COUNT@0:FFD_CLRN@2:OR_NOTAN@0:NOR@0:PMOS-4@2_B is floating.
WARNING: Node _3B_COUNT@0:FFD_CLRN@2:OR_NOTAN@1:NOR@0:PMOS-4@2_B is floating.
WARNING: Node _3B_COUNT@0:NAND@0:PMOS-4@1_B is floating.
WARNING: Node _3B_COUNT@0:XOR@0:NAND@0:PMOS-4@1_B is floating.
WARNING: Node _3B_COUNT@0:XOR@0:NAND@1:PMOS-4@1_B is floating.
WARNING: Node _3B_COUNT@0:XOR@0:NAND@2:PMOS-4@1_B is floating.
WARNING: Node _3B_COUNT@0:XOR@0:NAND@3:PMOS-4@1_B is floating.
WARNING: Node _3B_COUNT@0:XOR@1:NAND@0:PMOS-4@1_B is floating.
WARNING: Node _3B_COUNT@0:XOR@1:NAND@1:PMOS-4@1_B is floating.
WARNING: Node _3B_COUNT@0:XOR@1:NAND@2:PMOS-4@1_B is floating.
WARNING: Node _3B_COUNT@0:XOR@1:NAND@3:PMOS-4@1_B is floating.
WARNING: Node FFD_CLRN@0:CLK_NOSO@0:NOR@0:PMOS-4@2_B is floating.
WARNING: Node FFD_CLRN@0:CLK_NOSO@0:NOR@1:PMOS-4@2_B is floating.
WARNING: Node FFD_CLRN@0:NAND@0:PMOS-4@1_B is floating.
WARNING: Node FFD_CLRN@0:NAND@1:PMOS-4@1_B is floating.
WARNING: Node FFD_CLRN@0:OR_NOTAN@0:NOR@0:PMOS-4@2_B is floating.
WARNING: Node FFD_CLRN@0:OR_NOTAN@1:NOR@0:PMOS-4@2_B is floating.
WARNING: Node FFD_CLRN@1:CLK_NOSO@0:NOR@0:PMOS-4@2_B is floating.
WARNING: Node FFD_CLRN@1:CLK_NOSO@0:NOR@1:PMOS-4@2_B is floating.
WARNING: Node FFD_CLRN@1:NAND@0:PMOS-4@1_B is floating.
WARNING: Node FFD_CLRN@1:NAND@1:PMOS-4@1_B is floating.
WARNING: Node FFD_CLRN@1:OR_NOTAN@0:NOR@0:PMOS-4@2_B is floating.
WARNING: Node FFD_CLRN@1:OR_NOTAN@1:NOR@0:PMOS-4@2_B is floating.
WARNING: Node NAND@1:PMOS-4@1_B is floating.
WARNING: Node NOR@0:PMOS-4@2_B is floating.
WARNING: Node NOR@1:PMOS-4@2_B is floating.
WARNING: Node SET_RESE@0:NOR@0:PMOS-4@2_B is floating.
WARNING: Node SET_RESE@0:NOR@1:PMOS-4@2_B is floating.
WARNING: Node SET_RESE@1:NOR@0:PMOS-4@2_B is floating.
WARNING: Node SET_RESE@1:NOR@1:PMOS-4@2_B is floating.

WARNING: Less than two connections to node _3B_NAND@0:NAND@0:PMOS-4@1_B.  This node is used by M:_3B_NAND@0:NAND@0:PMOS-4@1.
WARNING: Less than two connections to node _3B_NAND@0:NAND@1:PMOS-4@1_B.  This node is used by M:_3B_NAND@0:NAND@1:PMOS-4@1.
WARNING: Less than two connections to node _3B_NAND@0:NAND@2:PMOS-4@1_B.  This node is used by M:_3B_NAND@0:NAND@2:PMOS-4@1.
WARNING: Less than two connections to node _3B_NAND@0:NAND@3:PMOS-4@1_B.  This node is used by M:_3B_NAND@0:NAND@3:PMOS-4@1.
WARNING: Less than two connections to node _3B_NAND@0:NOR@0:PMOS-4@2_B.  This node is used by M:_3B_NAND@0:NOR@0:PMOS-4@2.
WARNING: Less than two connections to node _3B_COUNT@0:FFD_CLRN@0:CLK_NOSO@0:NOR@0:PMOS-4@2_B.  This node is used by M:_3B_COUNT@0:FFD_CLRN@0:CLK_NOSO@0:NOR@0:PMOS-4@2.
WARNING: Less than two connections to node _3B_COUNT@0:FFD_CLRN@0:CLK_NOSO@0:NOR@1:PMOS-4@2_B.  This node is used by M:_3B_COUNT@0:FFD_CLRN@0:CLK_NOSO@0:NOR@1:PMOS-4@2.
WARNING: Less than two connections to node _3B_COUNT@0:FFD_CLRN@0:NAND@0:PMOS-4@1_B.  This node is used by M:_3B_COUNT@0:FFD_CLRN@0:NAND@0:PMOS-4@1.
WARNING: Less than two connections to node _3B_COUNT@0:FFD_CLRN@0:NAND@1:PMOS-4@1_B.  This node is used by M:_3B_COUNT@0:FFD_CLRN@0:NAND@1:PMOS-4@1.
WARNING: Less than two connections to node _3B_COUNT@0:FFD_CLRN@0:OR_NOTAN@0:NOR@0:PMOS-4@2_B.  This node is used by M:_3B_COUNT@0:FFD_CLRN@0:OR_NOTAN@0:NOR@0:PMOS-4@2.
WARNING: Less than two connections to node _3B_COUNT@0:FFD_CLRN@0:OR_NOTAN@1:NOR@0:PMOS-4@2_B.  This node is used by M:_3B_COUNT@0:FFD_CLRN@0:OR_NOTAN@1:NOR@0:PMOS-4@2.
WARNING: Less than two connections to node _3B_COUNT@0:FFD_CLRN@1:CLK_NOSO@0:NOR@0:PMOS-4@2_B.  This node is used by M:_3B_COUNT@0:FFD_CLRN@1:CLK_NOSO@0:NOR@0:PMOS-4@2.
WARNING: Less than two connections to node _3B_COUNT@0:FFD_CLRN@1:CLK_NOSO@0:NOR@1:PMOS-4@2_B.  This node is used by M:_3B_COUNT@0:FFD_CLRN@1:CLK_NOSO@0:NOR@1:PMOS-4@2.
WARNING: Less than two connections to node _3B_COUNT@0:FFD_CLRN@1:NAND@0:PMOS-4@1_B.  This node is used by M:_3B_COUNT@0:FFD_CLRN@1:NAND@0:PMOS-4@1.
WARNING: Less than two connections to node _3B_COUNT@0:FFD_CLRN@1:NAND@1:PMOS-4@1_B.  This node is used by M:_3B_COUNT@0:FFD_CLRN@1:NAND@1:PMOS-4@1.
WARNING: Less than two connections to node _3B_COUNT@0:FFD_CLRN@1:OR_NOTAN@0:NOR@0:PMOS-4@2_B.  This node is used by M:_3B_COUNT@0:FFD_CLRN@1:OR_NOTAN@0:NOR@0:PMOS-4@2.
WARNING: Less than two connections to node _3B_COUNT@0:FFD_CLRN@1:OR_NOTAN@1:NOR@0:PMOS-4@2_B.  This node is used by M:_3B_COUNT@0:FFD_CLRN@1:OR_NOTAN@1:NOR@0:PMOS-4@2.
WARNING: Less than two connections to node _3B_COUNT@0:FFD_CLRN@2:CLK_NOSO@0:NOR@0:PMOS-4@2_B.  This node is used by M:_3B_COUNT@0:FFD_CLRN@2:CLK_NOSO@0:NOR@0:PMOS-4@2.
WARNING: Less than two connections to node _3B_COUNT@0:FFD_CLRN@2:CLK_NOSO@0:NOR@1:PMOS-4@2_B.  This node is used by M:_3B_COUNT@0:FFD_CLRN@2:CLK_NOSO@0:NOR@1:PMOS-4@2.
WARNING: Less than two connections to node _3B_COUNT@0:FFD_CLRN@2:NAND@0:PMOS-4@1_B.  This node is used by M:_3B_COUNT@0:FFD_CLRN@2:NAND@0:PMOS-4@1.
WARNING: Less than two connections to node _3B_COUNT@0:FFD_CLRN@2:NAND@1:PMOS-4@1_B.  This node is used by M:_3B_COUNT@0:FFD_CLRN@2:NAND@1:PMOS-4@1.
WARNING: Less than two connections to node _3B_COUNT@0:FFD_CLRN@2:OR_NOTAN@0:NOR@0:PMOS-4@2_B.  This node is used by M:_3B_COUNT@0:FFD_CLRN@2:OR_NOTAN@0:NOR@0:PMOS-4@2.
WARNING: Less than two connections to node _3B_COUNT@0:FFD_CLRN@2:OR_NOTAN@1:NOR@0:PMOS-4@2_B.  This node is used by M:_3B_COUNT@0:FFD_CLRN@2:OR_NOTAN@1:NOR@0:PMOS-4@2.
WARNING: Less than two connections to node _3B_COUNT@0:NAND@0:PMOS-4@1_B.  This node is used by M:_3B_COUNT@0:NAND@0:PMOS-4@1.
WARNING: Less than two connections to node _3B_COUNT@0:XOR@0:NAND@0:PMOS-4@1_B.  This node is used by M:_3B_COUNT@0:XOR@0:NAND@0:PMOS-4@1.
WARNING: Less than two connections to node _3B_COUNT@0:XOR@0:NAND@1:PMOS-4@1_B.  This node is used by M:_3B_COUNT@0:XOR@0:NAND@1:PMOS-4@1.
WARNING: Less than two connections to node _3B_COUNT@0:XOR@0:NAND@2:PMOS-4@1_B.  This node is used by M:_3B_COUNT@0:XOR@0:NAND@2:PMOS-4@1.
WARNING: Less than two connections to node _3B_COUNT@0:XOR@0:NAND@3:PMOS-4@1_B.  This node is used by M:_3B_COUNT@0:XOR@0:NAND@3:PMOS-4@1.
WARNING: Less than two connections to node _3B_COUNT@0:XOR@1:NAND@0:PMOS-4@1_B.  This node is used by M:_3B_COUNT@0:XOR@1:NAND@0:PMOS-4@1.
WARNING: Less than two connections to node _3B_COUNT@0:XOR@1:NAND@1:PMOS-4@1_B.  This node is used by M:_3B_COUNT@0:XOR@1:NAND@1:PMOS-4@1.
WARNING: Less than two connections to node _3B_COUNT@0:XOR@1:NAND@2:PMOS-4@1_B.  This node is used by M:_3B_COUNT@0:XOR@1:NAND@2:PMOS-4@1.
WARNING: Less than two connections to node _3B_COUNT@0:XOR@1:NAND@3:PMOS-4@1_B.  This node is used by M:_3B_COUNT@0:XOR@1:NAND@3:PMOS-4@1.
WARNING: Less than two connections to node FFD_CLRN@0:CLK_NOSO@0:NOR@0:PMOS-4@2_B.  This node is used by M:FFD_CLRN@0:CLK_NOSO@0:NOR@0:PMOS-4@2.
WARNING: Less than two connections to node FFD_CLRN@0:CLK_NOSO@0:NOR@1:PMOS-4@2_B.  This node is used by M:FFD_CLRN@0:CLK_NOSO@0:NOR@1:PMOS-4@2.
WARNING: Less than two connections to node FFD_CLRN@0:NAND@0:PMOS-4@1_B.  This node is used by M:FFD_CLRN@0:NAND@0:PMOS-4@1.
WARNING: Less than two connections to node FFD_CLRN@0:NAND@1:PMOS-4@1_B.  This node is used by M:FFD_CLRN@0:NAND@1:PMOS-4@1.
WARNING: Less than two connections to node FFD_CLRN@0:OR_NOTAN@0:NOR@0:PMOS-4@2_B.  This node is used by M:FFD_CLRN@0:OR_NOTAN@0:NOR@0:PMOS-4@2.
WARNING: Less than two connections to node FFD_CLRN@0:OR_NOTAN@1:NOR@0:PMOS-4@2_B.  This node is used by M:FFD_CLRN@0:OR_NOTAN@1:NOR@0:PMOS-4@2.
WARNING: Less than two connections to node FFD_CLRN@1:CLK_NOSO@0:NOR@0:PMOS-4@2_B.  This node is used by M:FFD_CLRN@1:CLK_NOSO@0:NOR@0:PMOS-4@2.
WARNING: Less than two connections to node FFD_CLRN@1:CLK_NOSO@0:NOR@1:PMOS-4@2_B.  This node is used by M:FFD_CLRN@1:CLK_NOSO@0:NOR@1:PMOS-4@2.
WARNING: Less than two connections to node FFD_CLRN@1:NAND@0:PMOS-4@1_B.  This node is used by M:FFD_CLRN@1:NAND@0:PMOS-4@1.
WARNING: Less than two connections to node FFD_CLRN@1:NAND@1:PMOS-4@1_B.  This node is used by M:FFD_CLRN@1:NAND@1:PMOS-4@1.
WARNING: Less than two connections to node FFD_CLRN@1:OR_NOTAN@0:NOR@0:PMOS-4@2_B.  This node is used by M:FFD_CLRN@1:OR_NOTAN@0:NOR@0:PMOS-4@2.
WARNING: Less than two connections to node FFD_CLRN@1:OR_NOTAN@1:NOR@0:PMOS-4@2_B.  This node is used by M:FFD_CLRN@1:OR_NOTAN@1:NOR@0:PMOS-4@2.
WARNING: Less than two connections to node NAND@1:PMOS-4@1_B.  This node is used by M:NAND@1:PMOS-4@1.
WARNING: Less than two connections to node NOR@0:PMOS-4@2_B.  This node is used by M:NOR@0:PMOS-4@2.
WARNING: Less than two connections to node NOR@1:PMOS-4@2_B.  This node is used by M:NOR@1:PMOS-4@2.
WARNING: Less than two connections to node SET_RESE@0:NOR@0:PMOS-4@2_B.  This node is used by M:SET_RESE@0:NOR@0:PMOS-4@2.
WARNING: Less than two connections to node SET_RESE@0:NOR@1:PMOS-4@2_B.  This node is used by M:SET_RESE@0:NOR@1:PMOS-4@2.
WARNING: Less than two connections to node SET_RESE@1:NOR@0:PMOS-4@2_B.  This node is used by M:SET_RESE@1:NOR@0:PMOS-4@2.
WARNING: Less than two connections to node SET_RESE@1:NOR@1:PMOS-4@2_B.  This node is used by M:SET_RESE@1:NOR@1:PMOS-4@2.
Warning: Pd = 0 is less than W.
Warning: Ps = 0 is less than W.
Warning: Pd = 0 is less than W.
Warning: Ps = 0 is less than W.
Early termination of direct N-R iteration.
Direct Newton iteration failed to find .op point.  (Use ".option noopiter" to skip.)
Starting Gmin stepping
Gmin = 10
Gmin = 1.07374
Gmin = 0.115292
Gmin = 0.0123794
Gmin = 0.00132923
Gmin = 0.000142725
Gmin = 1.5325e-005
Gmin = 1.6455e-006
Gmin = 1.76685e-007
Gmin = 1.89714e-008
Gmin = 2.03704e-009
Gmin = 2.18725e-010
Gmin = 2.34854e-011
Gmin = 2.52173e-012
Gmin = 2.70769e-013
Gmin = 0
Gmin stepping succeeded in finding the operating point.


Date: Mon Jul 01 17:06:47 2024
Total elapsed time: 19.858 seconds.

tnom = 27
temp = 27
method = modified trap
totiter = 185158
traniter = 184725
tranpoints = 51409
accept = 37511
rejected = 13898
matrix size = 273
fillins = 336
solver = Normal
Thread vector: 187.0/59.7[12] 85.1/19.2[12] 30.0/12.1[12] 1.8/3.6[1]  2592/500
Matrix Compiler1: 60.17 KB object code size  22.5/11.4/[4.1]
Matrix Compiler2: 41.31 KB object code size  12.0/11.7/[4.2]

