Circuit: *** SPICE deck for cell FlipFlopD_rst{sch} from library ADCD_Hipperdinger

Warning: Multiple definitions of model "pmost81" Type: BSIM3
Warning: Multiple definitions of model "pmost51" Type: BSIM3
Warning: Multiple definitions of model "pmost42" Type: BSIM3
Warning: Multiple definitions of model "pmost39" Type: BSIM3
Warning: Multiple definitions of model "pmost36" Type: BSIM3
Warning: Multiple definitions of model "nmost81" Type: BSIM3
Warning: Multiple definitions of model "nmost51" Type: BSIM3
Warning: Multiple definitions of model "nmost42" Type: BSIM3
Warning: Multiple definitions of model "nmost39" Type: BSIM3
Warning: Multiple definitions of model "nmost36" Type: BSIM3
Ignoring BSIM parameter ACM
Ignoring BSIM parameter HDIF
Ignoring BSIM parameter TLEV
Ignoring BSIM parameter ACM
Ignoring BSIM parameter HDIF
Ignoring BSIM parameter TLEV
WARNING: Node NOR@0:PMOS-4@2_B is floating.

WARNING: Less than two connections to node NOR@0:PMOS-4@2_B.  This node is used by M:NOR@0:PMOS-4@2.
Warning: Pd = 0 is less than W.
Warning: Ps = 0 is less than W.
Warning: Pd = 0 is less than W.
Warning: Ps = 0 is less than W.
Direct Newton iteration for .op point succeeded.

Date: Fri Jun 21 17:47:10 2024
Total elapsed time: 0.172 seconds.

tnom = 27
temp = 27
method = modified trap
totiter = 5066
traniter = 5042
tranpoints = 1743
accept = 1557
rejected = 186
matrix size = 19
fillins = 6
solver = Normal
Thread vector: 33.9/7.2[3] 2.5/2.3[2] 1.0/1.2[1] 0.2/0.8[1]  2592/500
Matrix Compiler1: 2.79 KB object code size  0.4/0.2/[0.1]
Matrix Compiler2: 2.32 KB object code size  0.2/0.2/[0.2]

