Circuit: *** SPICE deck for cell FlipFlopD{sch} from library ADCD_Hipperdinger

Warning: Multiple definitions of model "pmost81" Type: BSIM3
Warning: Multiple definitions of model "pmost51" Type: BSIM3
Warning: Multiple definitions of model "pmost42" Type: BSIM3
Warning: Multiple definitions of model "pmost39" Type: BSIM3
Warning: Multiple definitions of model "pmost36" Type: BSIM3
Warning: Multiple definitions of model "nmost81" Type: BSIM3
Warning: Multiple definitions of model "nmost51" Type: BSIM3
Warning: Multiple definitions of model "nmost42" Type: BSIM3
Warning: Multiple definitions of model "nmost39" Type: BSIM3
Warning: Multiple definitions of model "nmost36" Type: BSIM3
Ignoring BSIM parameter ACM
Ignoring BSIM parameter HDIF
Ignoring BSIM parameter TLEV
Ignoring BSIM parameter ACM
Ignoring BSIM parameter HDIF
Ignoring BSIM parameter TLEV
Warning: Pd = 0 is less than W.
Warning: Ps = 0 is less than W.
Warning: Pd = 0 is less than W.
Warning: Ps = 0 is less than W.
Direct Newton iteration for .op point succeeded.

Date: Fri Jun 21 15:46:08 2024
Total elapsed time: 0.094 seconds.

tnom = 27
temp = 27
method = modified trap
totiter = 3892
traniter = 3874
tranpoints = 1472
accept = 1355
rejected = 117
matrix size = 16
fillins = 4
solver = Normal
Thread vector: 28.8/10.9[2] 2.5/3.4[1] 1.7/1.1[2] 0.5/1.6[1]  2592/500
Matrix Compiler1: 2.29 KB object code size  0.4/0.2/[0.2]
Matrix Compiler2: off  [0.2]/0.2/0.4

