Circuit: *** SPICE deck for cell I2C_Top_Module_sim{sch} from library ADCD_Hipperdinger

Warning: Multiple definitions of model "pmost81" Type: BSIM3
Warning: Multiple definitions of model "pmost51" Type: BSIM3
Warning: Multiple definitions of model "pmost42" Type: BSIM3
Warning: Multiple definitions of model "pmost39" Type: BSIM3
Warning: Multiple definitions of model "pmost36" Type: BSIM3
Warning: Multiple definitions of model "nmost81" Type: BSIM3
Warning: Multiple definitions of model "nmost51" Type: BSIM3
Warning: Multiple definitions of model "nmost42" Type: BSIM3
Warning: Multiple definitions of model "nmost39" Type: BSIM3
Warning: Multiple definitions of model "nmost36" Type: BSIM3
Ignoring BSIM parameter ACM
Ignoring BSIM parameter HDIF
Ignoring BSIM parameter TLEV
Ignoring BSIM parameter ACM
Ignoring BSIM parameter HDIF
Ignoring BSIM parameter TLEV
WARNING: Node I2C_TOP_@0:I2C_SUBM@0:AND@0:NAND@0:PMOS-4@1_B is floating.
WARNING: Node I2C_TOP_@0:I2C_SUBM@0:CLK_NOSO@0:NOR@0:PMOS-4@2_B is floating.
WARNING: Node I2C_TOP_@0:I2C_SUBM@0:CLK_NOSO@0:NOR@1:PMOS-4@2_B is floating.
WARNING: Node I2C_TOP_@0:I2C_SUBM@0:COUNTER_@0:_3B_NAND@0:NAND@0:PMOS-4@1_B is floating.
WARNING: Node I2C_TOP_@0:I2C_SUBM@0:COUNTER_@0:_3B_NAND@0:NAND@1:PMOS-4@1_B is floating.
WARNING: Node I2C_TOP_@0:I2C_SUBM@0:COUNTER_@0:_3B_NAND@0:NAND@2:PMOS-4@1_B is floating.
WARNING: Node I2C_TOP_@0:I2C_SUBM@0:COUNTER_@0:_3B_NAND@0:NAND@3:PMOS-4@1_B is floating.
WARNING: Node I2C_TOP_@0:I2C_SUBM@0:COUNTER_@0:_3B_NAND@0:NOR@0:PMOS-4@2_B is floating.
WARNING: Node I2C_TOP_@0:I2C_SUBM@0:COUNTER_@0:_3B_COUNT@0:FFD_CLRN@0:CLK_NOSO@0:NOR@0:PMOS-4@2_B is floating.
WARNING: Node I2C_TOP_@0:I2C_SUBM@0:COUNTER_@0:_3B_COUNT@0:FFD_CLRN@0:CLK_NOSO@0:NOR@1:PMOS-4@2_B is floating.
WARNING: Node I2C_TOP_@0:I2C_SUBM@0:COUNTER_@0:_3B_COUNT@0:FFD_CLRN@0:NAND@0:PMOS-4@1_B is floating.
WARNING: Node I2C_TOP_@0:I2C_SUBM@0:COUNTER_@0:_3B_COUNT@0:FFD_CLRN@0:NAND@1:PMOS-4@1_B is floating.
WARNING: Node I2C_TOP_@0:I2C_SUBM@0:COUNTER_@0:_3B_COUNT@0:FFD_CLRN@0:OR_NOTAN@0:NOR@0:PMOS-4@2_B is floating.
WARNING: Node I2C_TOP_@0:I2C_SUBM@0:COUNTER_@0:_3B_COUNT@0:FFD_CLRN@0:OR_NOTAN@1:NOR@0:PMOS-4@2_B is floating.
WARNING: Node I2C_TOP_@0:I2C_SUBM@0:COUNTER_@0:_3B_COUNT@0:FFD_CLRN@1:CLK_NOSO@0:NOR@0:PMOS-4@2_B is floating.
WARNING: Node I2C_TOP_@0:I2C_SUBM@0:COUNTER_@0:_3B_COUNT@0:FFD_CLRN@1:CLK_NOSO@0:NOR@1:PMOS-4@2_B is floating.
WARNING: Node I2C_TOP_@0:I2C_SUBM@0:COUNTER_@0:_3B_COUNT@0:FFD_CLRN@1:NAND@0:PMOS-4@1_B is floating.
WARNING: Node I2C_TOP_@0:I2C_SUBM@0:COUNTER_@0:_3B_COUNT@0:FFD_CLRN@1:NAND@1:PMOS-4@1_B is floating.
WARNING: Node I2C_TOP_@0:I2C_SUBM@0:COUNTER_@0:_3B_COUNT@0:FFD_CLRN@1:OR_NOTAN@0:NOR@0:PMOS-4@2_B is floating.
WARNING: Node I2C_TOP_@0:I2C_SUBM@0:COUNTER_@0:_3B_COUNT@0:FFD_CLRN@1:OR_NOTAN@1:NOR@0:PMOS-4@2_B is floating.
WARNING: Node I2C_TOP_@0:I2C_SUBM@0:COUNTER_@0:_3B_COUNT@0:FFD_CLRN@2:CLK_NOSO@0:NOR@0:PMOS-4@2_B is floating.
WARNING: Node I2C_TOP_@0:I2C_SUBM@0:COUNTER_@0:_3B_COUNT@0:FFD_CLRN@2:CLK_NOSO@0:NOR@1:PMOS-4@2_B is floating.
WARNING: Node I2C_TOP_@0:I2C_SUBM@0:COUNTER_@0:_3B_COUNT@0:FFD_CLRN@2:NAND@0:PMOS-4@1_B is floating.
WARNING: Node I2C_TOP_@0:I2C_SUBM@0:COUNTER_@0:_3B_COUNT@0:FFD_CLRN@2:NAND@1:PMOS-4@1_B is floating.
WARNING: Node I2C_TOP_@0:I2C_SUBM@0:COUNTER_@0:_3B_COUNT@0:FFD_CLRN@2:OR_NOTAN@0:NOR@0:PMOS-4@2_B is floating.
WARNING: Node I2C_TOP_@0:I2C_SUBM@0:COUNTER_@0:_3B_COUNT@0:FFD_CLRN@2:OR_NOTAN@1:NOR@0:PMOS-4@2_B is floating.
WARNING: Node I2C_TOP_@0:I2C_SUBM@0:COUNTER_@0:_3B_COUNT@0:NAND@0:PMOS-4@1_B is floating.
WARNING: Node I2C_TOP_@0:I2C_SUBM@0:COUNTER_@0:_3B_COUNT@0:XOR@0:NAND@0:PMOS-4@1_B is floating.
WARNING: Node I2C_TOP_@0:I2C_SUBM@0:COUNTER_@0:_3B_COUNT@0:XOR@0:NAND@1:PMOS-4@1_B is floating.
WARNING: Node I2C_TOP_@0:I2C_SUBM@0:COUNTER_@0:_3B_COUNT@0:XOR@0:NAND@2:PMOS-4@1_B is floating.
WARNING: Node I2C_TOP_@0:I2C_SUBM@0:COUNTER_@0:_3B_COUNT@0:XOR@0:NAND@3:PMOS-4@1_B is floating.
WARNING: Node I2C_TOP_@0:I2C_SUBM@0:COUNTER_@0:_3B_COUNT@0:XOR@1:NAND@0:PMOS-4@1_B is floating.
WARNING: Node I2C_TOP_@0:I2C_SUBM@0:COUNTER_@0:_3B_COUNT@0:XOR@1:NAND@1:PMOS-4@1_B is floating.
WARNING: Node I2C_TOP_@0:I2C_SUBM@0:COUNTER_@0:_3B_COUNT@0:XOR@1:NAND@2:PMOS-4@1_B is floating.
WARNING: Node I2C_TOP_@0:I2C_SUBM@0:COUNTER_@0:_3B_COUNT@0:XOR@1:NAND@3:PMOS-4@1_B is floating.
WARNING: Node I2C_TOP_@0:I2C_SUBM@0:COUNTER_@0:FFD_CLRN@0:CLK_NOSO@0:NOR@0:PMOS-4@2_B is floating.
WARNING: Node I2C_TOP_@0:I2C_SUBM@0:COUNTER_@0:FFD_CLRN@0:CLK_NOSO@0:NOR@1:PMOS-4@2_B is floating.
WARNING: Node I2C_TOP_@0:I2C_SUBM@0:COUNTER_@0:FFD_CLRN@0:NAND@0:PMOS-4@1_B is floating.
WARNING: Node I2C_TOP_@0:I2C_SUBM@0:COUNTER_@0:FFD_CLRN@0:NAND@1:PMOS-4@1_B is floating.
WARNING: Node I2C_TOP_@0:I2C_SUBM@0:COUNTER_@0:FFD_CLRN@0:OR_NOTAN@0:NOR@0:PMOS-4@2_B is floating.
WARNING: Node I2C_TOP_@0:I2C_SUBM@0:COUNTER_@0:FFD_CLRN@0:OR_NOTAN@1:NOR@0:PMOS-4@2_B is floating.
WARNING: Node I2C_TOP_@0:I2C_SUBM@0:COUNTER_@0:FFD_CLRN@1:CLK_NOSO@0:NOR@0:PMOS-4@2_B is floating.
WARNING: Node I2C_TOP_@0:I2C_SUBM@0:COUNTER_@0:FFD_CLRN@1:CLK_NOSO@0:NOR@1:PMOS-4@2_B is floating.
WARNING: Node I2C_TOP_@0:I2C_SUBM@0:COUNTER_@0:FFD_CLRN@1:NAND@0:PMOS-4@1_B is floating.
WARNING: Node I2C_TOP_@0:I2C_SUBM@0:COUNTER_@0:FFD_CLRN@1:NAND@1:PMOS-4@1_B is floating.
WARNING: Node I2C_TOP_@0:I2C_SUBM@0:COUNTER_@0:FFD_CLRN@1:OR_NOTAN@0:NOR@0:PMOS-4@2_B is floating.
WARNING: Node I2C_TOP_@0:I2C_SUBM@0:COUNTER_@0:FFD_CLRN@1:OR_NOTAN@1:NOR@0:PMOS-4@2_B is floating.
WARNING: Node I2C_TOP_@0:I2C_SUBM@0:COUNTER_@0:NAND@1:PMOS-4@1_B is floating.
WARNING: Node I2C_TOP_@0:I2C_SUBM@0:COUNTER_@0:NOR@0:PMOS-4@2_B is floating.
WARNING: Node I2C_TOP_@0:I2C_SUBM@0:COUNTER_@0:NOR@1:PMOS-4@2_B is floating.
WARNING: Node I2C_TOP_@0:I2C_SUBM@0:COUNTER_@0:SET_RESE@0:NOR@0:PMOS-4@2_B is floating.
WARNING: Node I2C_TOP_@0:I2C_SUBM@0:COUNTER_@0:SET_RESE@0:NOR@1:PMOS-4@2_B is floating.
WARNING: Node I2C_TOP_@0:I2C_SUBM@0:COUNTER_@0:SET_RESE@1:NOR@0:PMOS-4@2_B is floating.
WARNING: Node I2C_TOP_@0:I2C_SUBM@0:COUNTER_@0:SET_RESE@1:NOR@1:PMOS-4@2_B is floating.
WARNING: Node I2C_TOP_@0:I2C_SUBM@0:FFD_CLRN@0:CLK_NOSO@0:NOR@0:PMOS-4@2_B is floating.
WARNING: Node I2C_TOP_@0:I2C_SUBM@0:FFD_CLRN@0:CLK_NOSO@0:NOR@1:PMOS-4@2_B is floating.
WARNING: Node I2C_TOP_@0:I2C_SUBM@0:FFD_CLRN@0:NAND@0:PMOS-4@1_B is floating.
WARNING: Node I2C_TOP_@0:I2C_SUBM@0:FFD_CLRN@0:NAND@1:PMOS-4@1_B is floating.
WARNING: Node I2C_TOP_@0:I2C_SUBM@0:FFD_CLRN@0:OR_NOTAN@0:NOR@0:PMOS-4@2_B is floating.
WARNING: Node I2C_TOP_@0:I2C_SUBM@0:FFD_CLRN@0:OR_NOTAN@1:NOR@0:PMOS-4@2_B is floating.
WARNING: Node I2C_TOP_@0:I2C_SUBM@0:NOR@0:PMOS-4@2_B is floating.
WARNING: Node I2C_TOP_@0:I2C_SUBM@0:OR@0:NOR@0:PMOS-4@2_B is floating.
WARNING: Node I2C_TOP_@0:I2C_SUBM@0:OR@1:NOR@0:PMOS-4@2_B is floating.
WARNING: Node I2C_TOP_@0:I2C_SUBM@0:OR@2:NOR@0:PMOS-4@2_B is floating.
WARNING: Node I2C_TOP_@0:I2C_SUBM@0:OR@4:NOR@0:PMOS-4@2_B is floating.
WARNING: Node I2C_TOP_@0:I2C_SUBM@0:R_W_MODU@0:AND@0:NAND@0:PMOS-4@1_B is floating.
WARNING: Node I2C_TOP_@0:I2C_SUBM@0:R_W_MODU@0:AND@1:NAND@0:PMOS-4@1_B is floating.
WARNING: Node I2C_TOP_@0:I2C_SUBM@0:R_W_MODU@0:AND@2:NAND@0:PMOS-4@1_B is floating.
WARNING: Node I2C_TOP_@0:I2C_SUBM@0:R_W_MODU@0:FFD_CLRN@0:CLK_NOSO@0:NOR@0:PMOS-4@2_B is floating.
WARNING: Node I2C_TOP_@0:I2C_SUBM@0:R_W_MODU@0:FFD_CLRN@0:CLK_NOSO@0:NOR@1:PMOS-4@2_B is floating.
WARNING: Node I2C_TOP_@0:I2C_SUBM@0:R_W_MODU@0:FFD_CLRN@0:NAND@0:PMOS-4@1_B is floating.
WARNING: Node I2C_TOP_@0:I2C_SUBM@0:R_W_MODU@0:FFD_CLRN@0:NAND@1:PMOS-4@1_B is floating.
WARNING: Node I2C_TOP_@0:I2C_SUBM@0:R_W_MODU@0:FFD_CLRN@0:OR_NOTAN@0:NOR@0:PMOS-4@2_B is floating.
WARNING: Node I2C_TOP_@0:I2C_SUBM@0:R_W_MODU@0:FFD_CLRN@0:OR_NOTAN@1:NOR@0:PMOS-4@2_B is floating.
WARNING: Node I2C_TOP_@0:I2C_SUBM@0:R_W_MODU@0:NOR@0:PMOS-4@2_B is floating.
WARNING: Node I2C_TOP_@0:I2C_SUBM@0:SR_SIPO_@0:FFD_CLRN@0:CLK_NOSO@0:NOR@0:PMOS-4@2_B is floating.
WARNING: Node I2C_TOP_@0:I2C_SUBM@0:SR_SIPO_@0:FFD_CLRN@0:CLK_NOSO@0:NOR@1:PMOS-4@2_B is floating.
WARNING: Node I2C_TOP_@0:I2C_SUBM@0:SR_SIPO_@0:FFD_CLRN@0:NAND@0:PMOS-4@1_B is floating.
WARNING: Node I2C_TOP_@0:I2C_SUBM@0:SR_SIPO_@0:FFD_CLRN@0:NAND@1:PMOS-4@1_B is floating.
WARNING: Node I2C_TOP_@0:I2C_SUBM@0:SR_SIPO_@0:FFD_CLRN@0:OR_NOTAN@0:NOR@0:PMOS-4@2_B is floating.
WARNING: Node I2C_TOP_@0:I2C_SUBM@0:SR_SIPO_@0:FFD_CLRN@0:OR_NOTAN@1:NOR@0:PMOS-4@2_B is floating.
WARNING: Node I2C_TOP_@0:I2C_SUBM@0:SR_SIPO_@0:FFD_CLRN@1:CLK_NOSO@0:NOR@0:PMOS-4@2_B is floating.
WARNING: Node I2C_TOP_@0:I2C_SUBM@0:SR_SIPO_@0:FFD_CLRN@1:CLK_NOSO@0:NOR@1:PMOS-4@2_B is floating.
WARNING: Node I2C_TOP_@0:I2C_SUBM@0:SR_SIPO_@0:FFD_CLRN@1:NAND@0:PMOS-4@1_B is floating.
WARNING: Node I2C_TOP_@0:I2C_SUBM@0:SR_SIPO_@0:FFD_CLRN@1:NAND@1:PMOS-4@1_B is floating.
WARNING: Node I2C_TOP_@0:I2C_SUBM@0:SR_SIPO_@0:FFD_CLRN@1:OR_NOTAN@0:NOR@0:PMOS-4@2_B is floating.
WARNING: Node I2C_TOP_@0:I2C_SUBM@0:SR_SIPO_@0:FFD_CLRN@1:OR_NOTAN@1:NOR@0:PMOS-4@2_B is floating.
WARNING: Node I2C_TOP_@0:I2C_SUBM@0:SR_SIPO_@0:FFD_CLRN@2:CLK_NOSO@0:NOR@0:PMOS-4@2_B is floating.
WARNING: Node I2C_TOP_@0:I2C_SUBM@0:SR_SIPO_@0:FFD_CLRN@2:CLK_NOSO@0:NOR@1:PMOS-4@2_B is floating.
WARNING: Node I2C_TOP_@0:I2C_SUBM@0:SR_SIPO_@0:FFD_CLRN@2:NAND@0:PMOS-4@1_B is floating.
WARNING: Node I2C_TOP_@0:I2C_SUBM@0:SR_SIPO_@0:FFD_CLRN@2:NAND@1:PMOS-4@1_B is floating.
WARNING: Node I2C_TOP_@0:I2C_SUBM@0:SR_SIPO_@0:FFD_CLRN@2:OR_NOTAN@0:NOR@0:PMOS-4@2_B is floating.
WARNING: Node I2C_TOP_@0:I2C_SUBM@0:SR_SIPO_@0:FFD_CLRN@2:OR_NOTAN@1:NOR@0:PMOS-4@2_B is floating.
WARNING: Node I2C_TOP_@0:I2C_SUBM@0:SR_SIPO_@0:FFD_CLRN@3:CLK_NOSO@0:NOR@0:PMOS-4@2_B is floating.
WARNING: Node I2C_TOP_@0:I2C_SUBM@0:SR_SIPO_@0:FFD_CLRN@3:CLK_NOSO@0:NOR@1:PMOS-4@2_B is floating.
WARNING: Node I2C_TOP_@0:I2C_SUBM@0:SR_SIPO_@0:FFD_CLRN@3:NAND@0:PMOS-4@1_B is floating.
WARNING: Node I2C_TOP_@0:I2C_SUBM@0:SR_SIPO_@0:FFD_CLRN@3:NAND@1:PMOS-4@1_B is floating.
WARNING: Node I2C_TOP_@0:I2C_SUBM@0:SR_SIPO_@0:FFD_CLRN@3:OR_NOTAN@0:NOR@0:PMOS-4@2_B is floating.
WARNING: Node I2C_TOP_@0:I2C_SUBM@0:SR_SIPO_@0:FFD_CLRN@3:OR_NOTAN@1:NOR@0:PMOS-4@2_B is floating.
WARNING: Node I2C_TOP_@0:I2C_SUBM@0:SR_SIPO_@0:FFD_CLRN@8:CLK_NOSO@0:NOR@0:PMOS-4@2_B is floating.
WARNING: Node I2C_TOP_@0:I2C_SUBM@0:SR_SIPO_@0:FFD_CLRN@8:CLK_NOSO@0:NOR@1:PMOS-4@2_B is floating.
WARNING: Node I2C_TOP_@0:I2C_SUBM@0:SR_SIPO_@0:FFD_CLRN@8:NAND@0:PMOS-4@1_B is floating.
WARNING: Node I2C_TOP_@0:I2C_SUBM@0:SR_SIPO_@0:FFD_CLRN@8:NAND@1:PMOS-4@1_B is floating.
WARNING: Node I2C_TOP_@0:I2C_SUBM@0:SR_SIPO_@0:FFD_CLRN@8:OR_NOTAN@0:NOR@0:PMOS-4@2_B is floating.
WARNING: Node I2C_TOP_@0:I2C_SUBM@0:SR_SIPO_@0:FFD_CLRN@8:OR_NOTAN@1:NOR@0:PMOS-4@2_B is floating.
WARNING: Node I2C_TOP_@0:I2C_SUBM@0:SR_SIPO_@0:FFD_CLRN@9:CLK_NOSO@0:NOR@0:PMOS-4@2_B is floating.
WARNING: Node I2C_TOP_@0:I2C_SUBM@0:SR_SIPO_@0:FFD_CLRN@9:CLK_NOSO@0:NOR@1:PMOS-4@2_B is floating.
WARNING: Node I2C_TOP_@0:I2C_SUBM@0:SR_SIPO_@0:FFD_CLRN@9:NAND@0:PMOS-4@1_B is floating.
WARNING: Node I2C_TOP_@0:I2C_SUBM@0:SR_SIPO_@0:FFD_CLRN@9:NAND@1:PMOS-4@1_B is floating.
WARNING: Node I2C_TOP_@0:I2C_SUBM@0:SR_SIPO_@0:FFD_CLRN@9:OR_NOTAN@0:NOR@0:PMOS-4@2_B is floating.
WARNING: Node I2C_TOP_@0:I2C_SUBM@0:SR_SIPO_@0:FFD_CLRN@9:OR_NOTAN@1:NOR@0:PMOS-4@2_B is floating.
WARNING: Node I2C_TOP_@0:I2C_SUBM@0:SR_SIPO_@0:FFD_CLRN@10:CLK_NOSO@0:NOR@0:PMOS-4@2_B is floating.
WARNING: Node I2C_TOP_@0:I2C_SUBM@0:SR_SIPO_@0:FFD_CLRN@10:CLK_NOSO@0:NOR@1:PMOS-4@2_B is floating.
WARNING: Node I2C_TOP_@0:I2C_SUBM@0:SR_SIPO_@0:FFD_CLRN@10:NAND@0:PMOS-4@1_B is floating.
WARNING: Node I2C_TOP_@0:I2C_SUBM@0:SR_SIPO_@0:FFD_CLRN@10:NAND@1:PMOS-4@1_B is floating.
WARNING: Node I2C_TOP_@0:I2C_SUBM@0:SR_SIPO_@0:FFD_CLRN@10:OR_NOTAN@0:NOR@0:PMOS-4@2_B is floating.
WARNING: Node I2C_TOP_@0:I2C_SUBM@0:SR_SIPO_@0:FFD_CLRN@10:OR_NOTAN@1:NOR@0:PMOS-4@2_B is floating.
WARNING: Node I2C_TOP_@0:I2C_SUBM@0:SR_SIPO_@0:FFD_CLRN@11:CLK_NOSO@0:NOR@0:PMOS-4@2_B is floating.
WARNING: Node I2C_TOP_@0:I2C_SUBM@0:SR_SIPO_@0:FFD_CLRN@11:CLK_NOSO@0:NOR@1:PMOS-4@2_B is floating.
WARNING: Node I2C_TOP_@0:I2C_SUBM@0:SR_SIPO_@0:FFD_CLRN@11:NAND@0:PMOS-4@1_B is floating.
WARNING: Node I2C_TOP_@0:I2C_SUBM@0:SR_SIPO_@0:FFD_CLRN@11:NAND@1:PMOS-4@1_B is floating.
WARNING: Node I2C_TOP_@0:I2C_SUBM@0:SR_SIPO_@0:FFD_CLRN@11:OR_NOTAN@0:NOR@0:PMOS-4@2_B is floating.
WARNING: Node I2C_TOP_@0:I2C_SUBM@0:SR_SIPO_@0:FFD_CLRN@11:OR_NOTAN@1:NOR@0:PMOS-4@2_B is floating.
WARNING: Node I2C_TOP_@0:I2C_SUBM@0:ADD_DETE@0:_14B_EQUA@0:_6B_AND@0:NAND@0:PMOS-4@1_B is floating.
WARNING: Node I2C_TOP_@0:I2C_SUBM@0:ADD_DETE@0:_14B_EQUA@0:_6B_AND@0:NAND@1:PMOS-4@1_B is floating.
WARNING: Node I2C_TOP_@0:I2C_SUBM@0:ADD_DETE@0:_14B_EQUA@0:_6B_AND@0:NAND@2:PMOS-4@1_B is floating.
WARNING: Node I2C_TOP_@0:I2C_SUBM@0:ADD_DETE@0:_14B_EQUA@0:_6B_AND@0:NAND@3:PMOS-4@1_B is floating.
WARNING: Node I2C_TOP_@0:I2C_SUBM@0:ADD_DETE@0:_14B_EQUA@0:_6B_AND@0:NOR@0:PMOS-4@2_B is floating.
WARNING: Node I2C_TOP_@0:I2C_SUBM@0:ADD_DETE@0:_14B_EQUA@0:AND@0:NAND@0:PMOS-4@1_B is floating.
WARNING: Node I2C_TOP_@0:I2C_SUBM@0:ADD_DETE@0:_14B_EQUA@0:NOR@0:PMOS-4@2_B is floating.
WARNING: Node I2C_TOP_@0:I2C_SUBM@0:ADD_DETE@0:_14B_EQUA@0:NOR@1:PMOS-4@2_B is floating.
WARNING: Node I2C_TOP_@0:I2C_SUBM@0:ADD_DETE@0:_14B_EQUA@0:NOR@2:PMOS-4@2_B is floating.
WARNING: Node I2C_TOP_@0:I2C_SUBM@0:ADD_DETE@0:_14B_EQUA@0:XOR@0:NAND@0:PMOS-4@1_B is floating.
WARNING: Node I2C_TOP_@0:I2C_SUBM@0:ADD_DETE@0:_14B_EQUA@0:XOR@0:NAND@1:PMOS-4@1_B is floating.
WARNING: Node I2C_TOP_@0:I2C_SUBM@0:ADD_DETE@0:_14B_EQUA@0:XOR@0:NAND@2:PMOS-4@1_B is floating.
WARNING: Node I2C_TOP_@0:I2C_SUBM@0:ADD_DETE@0:_14B_EQUA@0:XOR@0:NAND@3:PMOS-4@1_B is floating.
WARNING: Node I2C_TOP_@0:I2C_SUBM@0:ADD_DETE@0:_14B_EQUA@0:XOR@1:NAND@0:PMOS-4@1_B is floating.
WARNING: Node I2C_TOP_@0:I2C_SUBM@0:ADD_DETE@0:_14B_EQUA@0:XOR@1:NAND@1:PMOS-4@1_B is floating.
WARNING: Node I2C_TOP_@0:I2C_SUBM@0:ADD_DETE@0:_14B_EQUA@0:XOR@1:NAND@2:PMOS-4@1_B is floating.
WARNING: Node I2C_TOP_@0:I2C_SUBM@0:ADD_DETE@0:_14B_EQUA@0:XOR@1:NAND@3:PMOS-4@1_B is floating.
WARNING: Node I2C_TOP_@0:I2C_SUBM@0:ADD_DETE@0:_14B_EQUA@0:XOR@2:NAND@0:PMOS-4@1_B is floating.
WARNING: Node I2C_TOP_@0:I2C_SUBM@0:ADD_DETE@0:_14B_EQUA@0:XOR@2:NAND@1:PMOS-4@1_B is floating.
WARNING: Node I2C_TOP_@0:I2C_SUBM@0:ADD_DETE@0:_14B_EQUA@0:XOR@2:NAND@2:PMOS-4@1_B is floating.
WARNING: Node I2C_TOP_@0:I2C_SUBM@0:ADD_DETE@0:_14B_EQUA@0:XOR@2:NAND@3:PMOS-4@1_B is floating.
WARNING: Node I2C_TOP_@0:I2C_SUBM@0:ADD_DETE@0:_14B_EQUA@0:XOR@3:NAND@0:PMOS-4@1_B is floating.
WARNING: Node I2C_TOP_@0:I2C_SUBM@0:ADD_DETE@0:_14B_EQUA@0:XOR@3:NAND@1:PMOS-4@1_B is floating.
WARNING: Node I2C_TOP_@0:I2C_SUBM@0:ADD_DETE@0:_14B_EQUA@0:XOR@3:NAND@2:PMOS-4@1_B is floating.
WARNING: Node I2C_TOP_@0:I2C_SUBM@0:ADD_DETE@0:_14B_EQUA@0:XOR@3:NAND@3:PMOS-4@1_B is floating.
WARNING: Node I2C_TOP_@0:I2C_SUBM@0:ADD_DETE@0:_14B_EQUA@0:XOR@4:NAND@0:PMOS-4@1_B is floating.
WARNING: Node I2C_TOP_@0:I2C_SUBM@0:ADD_DETE@0:_14B_EQUA@0:XOR@4:NAND@1:PMOS-4@1_B is floating.
WARNING: Node I2C_TOP_@0:I2C_SUBM@0:ADD_DETE@0:_14B_EQUA@0:XOR@4:NAND@2:PMOS-4@1_B is floating.
WARNING: Node I2C_TOP_@0:I2C_SUBM@0:ADD_DETE@0:_14B_EQUA@0:XOR@4:NAND@3:PMOS-4@1_B is floating.
WARNING: Node I2C_TOP_@0:I2C_SUBM@0:ADD_DETE@0:_14B_EQUA@0:XOR@5:NAND@0:PMOS-4@1_B is floating.
WARNING: Node I2C_TOP_@0:I2C_SUBM@0:ADD_DETE@0:_14B_EQUA@0:XOR@5:NAND@1:PMOS-4@1_B is floating.
WARNING: Node I2C_TOP_@0:I2C_SUBM@0:ADD_DETE@0:_14B_EQUA@0:XOR@5:NAND@2:PMOS-4@1_B is floating.
WARNING: Node I2C_TOP_@0:I2C_SUBM@0:ADD_DETE@0:_14B_EQUA@0:XOR@5:NAND@3:PMOS-4@1_B is floating.
WARNING: Node I2C_TOP_@0:I2C_SUBM@0:ADD_DETE@0:_14B_EQUA@0:XOR@6:NAND@0:PMOS-4@1_B is floating.
WARNING: Node I2C_TOP_@0:I2C_SUBM@0:ADD_DETE@0:_14B_EQUA@0:XOR@6:NAND@1:PMOS-4@1_B is floating.
WARNING: Node I2C_TOP_@0:I2C_SUBM@0:ADD_DETE@0:_14B_EQUA@0:XOR@6:NAND@2:PMOS-4@1_B is floating.
WARNING: Node I2C_TOP_@0:I2C_SUBM@0:ADD_DETE@0:_14B_EQUA@0:XOR@6:NAND@3:PMOS-4@1_B is floating.
WARNING: Node I2C_TOP_@0:I2C_SUBM@0:ADD_DETE@0:AND@0:NAND@0:PMOS-4@1_B is floating.
WARNING: Node I2C_TOP_@0:I2C_SUBM@0:ADD_DETE@0:FFD_CLRN@0:CLK_NOSO@0:NOR@0:PMOS-4@2_B is floating.
WARNING: Node I2C_TOP_@0:I2C_SUBM@0:ADD_DETE@0:FFD_CLRN@0:CLK_NOSO@0:NOR@1:PMOS-4@2_B is floating.
WARNING: Node I2C_TOP_@0:I2C_SUBM@0:ADD_DETE@0:FFD_CLRN@0:NAND@0:PMOS-4@1_B is floating.
WARNING: Node I2C_TOP_@0:I2C_SUBM@0:ADD_DETE@0:FFD_CLRN@0:NAND@1:PMOS-4@1_B is floating.
WARNING: Node I2C_TOP_@0:I2C_SUBM@0:ADD_DETE@0:FFD_CLRN@0:OR_NOTAN@0:NOR@0:PMOS-4@2_B is floating.
WARNING: Node I2C_TOP_@0:I2C_SUBM@0:ADD_DETE@0:FFD_CLRN@0:OR_NOTAN@1:NOR@0:PMOS-4@2_B is floating.
WARNING: Node I2C_TOP_@0:I2C_SUBM@0:ADD_DETE@0:FFD_CLRN@2:CLK_NOSO@0:NOR@0:PMOS-4@2_B is floating.
WARNING: Node I2C_TOP_@0:I2C_SUBM@0:ADD_DETE@0:FFD_CLRN@2:CLK_NOSO@0:NOR@1:PMOS-4@2_B is floating.
WARNING: Node I2C_TOP_@0:I2C_SUBM@0:ADD_DETE@0:FFD_CLRN@2:NAND@0:PMOS-4@1_B is floating.
WARNING: Node I2C_TOP_@0:I2C_SUBM@0:ADD_DETE@0:FFD_CLRN@2:NAND@1:PMOS-4@1_B is floating.
WARNING: Node I2C_TOP_@0:I2C_SUBM@0:ADD_DETE@0:FFD_CLRN@2:OR_NOTAN@0:NOR@0:PMOS-4@2_B is floating.
WARNING: Node I2C_TOP_@0:I2C_SUBM@0:ADD_DETE@0:FFD_CLRN@2:OR_NOTAN@1:NOR@0:PMOS-4@2_B is floating.
WARNING: Node I2C_TOP_@0:I2C_SUBM@0:ADD_DETE@0:FFD_CLRN@3:CLK_NOSO@0:NOR@0:PMOS-4@2_B is floating.
WARNING: Node I2C_TOP_@0:I2C_SUBM@0:ADD_DETE@0:FFD_CLRN@3:CLK_NOSO@0:NOR@1:PMOS-4@2_B is floating.
WARNING: Node I2C_TOP_@0:I2C_SUBM@0:ADD_DETE@0:FFD_CLRN@3:NAND@0:PMOS-4@1_B is floating.
WARNING: Node I2C_TOP_@0:I2C_SUBM@0:ADD_DETE@0:FFD_CLRN@3:NAND@1:PMOS-4@1_B is floating.
WARNING: Node I2C_TOP_@0:I2C_SUBM@0:ADD_DETE@0:FFD_CLRN@3:OR_NOTAN@0:NOR@0:PMOS-4@2_B is floating.
WARNING: Node I2C_TOP_@0:I2C_SUBM@0:ADD_DETE@0:FFD_CLRN@3:OR_NOTAN@1:NOR@0:PMOS-4@2_B is floating.
WARNING: Node I2C_TOP_@0:I2C_SUBM@0:ADD_DETE@0:XOR@0:NAND@0:PMOS-4@1_B is floating.
WARNING: Node I2C_TOP_@0:I2C_SUBM@0:ADD_DETE@0:XOR@0:NAND@1:PMOS-4@1_B is floating.
WARNING: Node I2C_TOP_@0:I2C_SUBM@0:ADD_DETE@0:XOR@0:NAND@2:PMOS-4@1_B is floating.
WARNING: Node I2C_TOP_@0:I2C_SUBM@0:ADD_DETE@0:XOR@0:NAND@3:PMOS-4@1_B is floating.
WARNING: Node I2C_TOP_@0:I2C_SUBM@0:BUFF_8BI@0:FFD_CLRN@0:CLK_NOSO@0:NOR@0:PMOS-4@2_B is floating.
WARNING: Node I2C_TOP_@0:I2C_SUBM@0:BUFF_8BI@0:FFD_CLRN@0:CLK_NOSO@0:NOR@1:PMOS-4@2_B is floating.
WARNING: Node I2C_TOP_@0:I2C_SUBM@0:BUFF_8BI@0:FFD_CLRN@0:NAND@0:PMOS-4@1_B is floating.
WARNING: Node I2C_TOP_@0:I2C_SUBM@0:BUFF_8BI@0:FFD_CLRN@0:NAND@1:PMOS-4@1_B is floating.
WARNING: Node I2C_TOP_@0:I2C_SUBM@0:BUFF_8BI@0:FFD_CLRN@0:OR_NOTAN@0:NOR@0:PMOS-4@2_B is floating.
WARNING: Node I2C_TOP_@0:I2C_SUBM@0:BUFF_8BI@0:FFD_CLRN@0:OR_NOTAN@1:NOR@0:PMOS-4@2_B is floating.
WARNING: Node I2C_TOP_@0:I2C_SUBM@0:BUFF_8BI@0:FFD_CLRN@1:CLK_NOSO@0:NOR@0:PMOS-4@2_B is floating.
WARNING: Node I2C_TOP_@0:I2C_SUBM@0:BUFF_8BI@0:FFD_CLRN@1:CLK_NOSO@0:NOR@1:PMOS-4@2_B is floating.
WARNING: Node I2C_TOP_@0:I2C_SUBM@0:BUFF_8BI@0:FFD_CLRN@1:NAND@0:PMOS-4@1_B is floating.
WARNING: Node I2C_TOP_@0:I2C_SUBM@0:BUFF_8BI@0:FFD_CLRN@1:NAND@1:PMOS-4@1_B is floating.
WARNING: Node I2C_TOP_@0:I2C_SUBM@0:BUFF_8BI@0:FFD_CLRN@1:OR_NOTAN@0:NOR@0:PMOS-4@2_B is floating.
WARNING: Node I2C_TOP_@0:I2C_SUBM@0:BUFF_8BI@0:FFD_CLRN@1:OR_NOTAN@1:NOR@0:PMOS-4@2_B is floating.
WARNING: Node I2C_TOP_@0:I2C_SUBM@0:BUFF_8BI@0:FFD_CLRN@2:CLK_NOSO@0:NOR@0:PMOS-4@2_B is floating.
WARNING: Node I2C_TOP_@0:I2C_SUBM@0:BUFF_8BI@0:FFD_CLRN@2:CLK_NOSO@0:NOR@1:PMOS-4@2_B is floating.
WARNING: Node I2C_TOP_@0:I2C_SUBM@0:BUFF_8BI@0:FFD_CLRN@2:NAND@0:PMOS-4@1_B is floating.
WARNING: Node I2C_TOP_@0:I2C_SUBM@0:BUFF_8BI@0:FFD_CLRN@2:NAND@1:PMOS-4@1_B is floating.
WARNING: Node I2C_TOP_@0:I2C_SUBM@0:BUFF_8BI@0:FFD_CLRN@2:OR_NOTAN@0:NOR@0:PMOS-4@2_B is floating.
WARNING: Node I2C_TOP_@0:I2C_SUBM@0:BUFF_8BI@0:FFD_CLRN@2:OR_NOTAN@1:NOR@0:PMOS-4@2_B is floating.
WARNING: Node I2C_TOP_@0:I2C_SUBM@0:BUFF_8BI@0:FFD_CLRN@3:CLK_NOSO@0:NOR@0:PMOS-4@2_B is floating.
WARNING: Node I2C_TOP_@0:I2C_SUBM@0:BUFF_8BI@0:FFD_CLRN@3:CLK_NOSO@0:NOR@1:PMOS-4@2_B is floating.
WARNING: Node I2C_TOP_@0:I2C_SUBM@0:BUFF_8BI@0:FFD_CLRN@3:NAND@0:PMOS-4@1_B is floating.
WARNING: Node I2C_TOP_@0:I2C_SUBM@0:BUFF_8BI@0:FFD_CLRN@3:NAND@1:PMOS-4@1_B is floating.
WARNING: Node I2C_TOP_@0:I2C_SUBM@0:BUFF_8BI@0:FFD_CLRN@3:OR_NOTAN@0:NOR@0:PMOS-4@2_B is floating.
WARNING: Node I2C_TOP_@0:I2C_SUBM@0:BUFF_8BI@0:FFD_CLRN@3:OR_NOTAN@1:NOR@0:PMOS-4@2_B is floating.
WARNING: Node I2C_TOP_@0:I2C_SUBM@0:BUFF_8BI@0:FFD_CLRN@4:CLK_NOSO@0:NOR@0:PMOS-4@2_B is floating.
WARNING: Node I2C_TOP_@0:I2C_SUBM@0:BUFF_8BI@0:FFD_CLRN@4:CLK_NOSO@0:NOR@1:PMOS-4@2_B is floating.
WARNING: Node I2C_TOP_@0:I2C_SUBM@0:BUFF_8BI@0:FFD_CLRN@4:NAND@0:PMOS-4@1_B is floating.
WARNING: Node I2C_TOP_@0:I2C_SUBM@0:BUFF_8BI@0:FFD_CLRN@4:NAND@1:PMOS-4@1_B is floating.
WARNING: Node I2C_TOP_@0:I2C_SUBM@0:BUFF_8BI@0:FFD_CLRN@4:OR_NOTAN@0:NOR@0:PMOS-4@2_B is floating.
WARNING: Node I2C_TOP_@0:I2C_SUBM@0:BUFF_8BI@0:FFD_CLRN@4:OR_NOTAN@1:NOR@0:PMOS-4@2_B is floating.
WARNING: Node I2C_TOP_@0:I2C_SUBM@0:BUFF_8BI@0:FFD_CLRN@5:CLK_NOSO@0:NOR@0:PMOS-4@2_B is floating.
WARNING: Node I2C_TOP_@0:I2C_SUBM@0:BUFF_8BI@0:FFD_CLRN@5:CLK_NOSO@0:NOR@1:PMOS-4@2_B is floating.
WARNING: Node I2C_TOP_@0:I2C_SUBM@0:BUFF_8BI@0:FFD_CLRN@5:NAND@0:PMOS-4@1_B is floating.
WARNING: Node I2C_TOP_@0:I2C_SUBM@0:BUFF_8BI@0:FFD_CLRN@5:NAND@1:PMOS-4@1_B is floating.
WARNING: Node I2C_TOP_@0:I2C_SUBM@0:BUFF_8BI@0:FFD_CLRN@5:OR_NOTAN@0:NOR@0:PMOS-4@2_B is floating.
WARNING: Node I2C_TOP_@0:I2C_SUBM@0:BUFF_8BI@0:FFD_CLRN@5:OR_NOTAN@1:NOR@0:PMOS-4@2_B is floating.
WARNING: Node I2C_TOP_@0:I2C_SUBM@0:BUFF_8BI@0:FFD_CLRN@6:CLK_NOSO@0:NOR@0:PMOS-4@2_B is floating.
WARNING: Node I2C_TOP_@0:I2C_SUBM@0:BUFF_8BI@0:FFD_CLRN@6:CLK_NOSO@0:NOR@1:PMOS-4@2_B is floating.
WARNING: Node I2C_TOP_@0:I2C_SUBM@0:BUFF_8BI@0:FFD_CLRN@6:NAND@0:PMOS-4@1_B is floating.
WARNING: Node I2C_TOP_@0:I2C_SUBM@0:BUFF_8BI@0:FFD_CLRN@6:NAND@1:PMOS-4@1_B is floating.
WARNING: Node I2C_TOP_@0:I2C_SUBM@0:BUFF_8BI@0:FFD_CLRN@6:OR_NOTAN@0:NOR@0:PMOS-4@2_B is floating.
WARNING: Node I2C_TOP_@0:I2C_SUBM@0:BUFF_8BI@0:FFD_CLRN@6:OR_NOTAN@1:NOR@0:PMOS-4@2_B is floating.
WARNING: Node I2C_TOP_@0:I2C_SUBM@0:BUFF_8BI@0:FFD_CLRN@7:CLK_NOSO@0:NOR@0:PMOS-4@2_B is floating.
WARNING: Node I2C_TOP_@0:I2C_SUBM@0:BUFF_8BI@0:FFD_CLRN@7:CLK_NOSO@0:NOR@1:PMOS-4@2_B is floating.
WARNING: Node I2C_TOP_@0:I2C_SUBM@0:BUFF_8BI@0:FFD_CLRN@7:NAND@0:PMOS-4@1_B is floating.
WARNING: Node I2C_TOP_@0:I2C_SUBM@0:BUFF_8BI@0:FFD_CLRN@7:NAND@1:PMOS-4@1_B is floating.
WARNING: Node I2C_TOP_@0:I2C_SUBM@0:BUFF_8BI@0:FFD_CLRN@7:OR_NOTAN@0:NOR@0:PMOS-4@2_B is floating.
WARNING: Node I2C_TOP_@0:I2C_SUBM@0:BUFF_8BI@0:FFD_CLRN@7:OR_NOTAN@1:NOR@0:PMOS-4@2_B is floating.
WARNING: Node I2C_TOP_@0:I2C_SUBM@0:WRITE_MO@0:AND@0:NAND@0:PMOS-4@1_B is floating.
WARNING: Node I2C_TOP_@0:I2C_SUBM@0:WRITE_MO@0:AND@1:NAND@0:PMOS-4@1_B is floating.
WARNING: Node I2C_TOP_@0:I2C_SUBM@0:WRITE_MO@0:AND@2:NAND@0:PMOS-4@1_B is floating.
WARNING: Node I2C_TOP_@0:I2C_SUBM@0:WRITE_MO@0:FFD_CLRN@1:CLK_NOSO@0:NOR@0:PMOS-4@2_B is floating.
WARNING: Node I2C_TOP_@0:I2C_SUBM@0:WRITE_MO@0:FFD_CLRN@1:CLK_NOSO@0:NOR@1:PMOS-4@2_B is floating.
WARNING: Node I2C_TOP_@0:I2C_SUBM@0:WRITE_MO@0:FFD_CLRN@1:NAND@0:PMOS-4@1_B is floating.
WARNING: Node I2C_TOP_@0:I2C_SUBM@0:WRITE_MO@0:FFD_CLRN@1:NAND@1:PMOS-4@1_B is floating.
WARNING: Node I2C_TOP_@0:I2C_SUBM@0:WRITE_MO@0:FFD_CLRN@1:OR_NOTAN@0:NOR@0:PMOS-4@2_B is floating.
WARNING: Node I2C_TOP_@0:I2C_SUBM@0:WRITE_MO@0:FFD_CLRN@1:OR_NOTAN@1:NOR@0:PMOS-4@2_B is floating.
WARNING: Node I2C_TOP_@0:I2C_SUBM@0:WRITE_MO@0:FFD_CLRN@2:CLK_NOSO@0:NOR@0:PMOS-4@2_B is floating.
WARNING: Node I2C_TOP_@0:I2C_SUBM@0:WRITE_MO@0:FFD_CLRN@2:CLK_NOSO@0:NOR@1:PMOS-4@2_B is floating.
WARNING: Node I2C_TOP_@0:I2C_SUBM@0:WRITE_MO@0:FFD_CLRN@2:NAND@0:PMOS-4@1_B is floating.
WARNING: Node I2C_TOP_@0:I2C_SUBM@0:WRITE_MO@0:FFD_CLRN@2:NAND@1:PMOS-4@1_B is floating.
WARNING: Node I2C_TOP_@0:I2C_SUBM@0:WRITE_MO@0:FFD_CLRN@2:OR_NOTAN@0:NOR@0:PMOS-4@2_B is floating.
WARNING: Node I2C_TOP_@0:I2C_SUBM@0:WRITE_MO@0:FFD_CLRN@2:OR_NOTAN@1:NOR@0:PMOS-4@2_B is floating.
WARNING: Node I2C_TOP_@0:I2C_SUBM@0:WRITE_MO@0:SR_PISO@0:FFD_CLRN@0:CLK_NOSO@0:NOR@0:PMOS-4@2_B is floating.
WARNING: Node I2C_TOP_@0:I2C_SUBM@0:WRITE_MO@0:SR_PISO@0:FFD_CLRN@0:CLK_NOSO@0:NOR@1:PMOS-4@2_B is floating.
WARNING: Node I2C_TOP_@0:I2C_SUBM@0:WRITE_MO@0:SR_PISO@0:FFD_CLRN@0:NAND@0:PMOS-4@1_B is floating.
WARNING: Node I2C_TOP_@0:I2C_SUBM@0:WRITE_MO@0:SR_PISO@0:FFD_CLRN@0:NAND@1:PMOS-4@1_B is floating.
WARNING: Node I2C_TOP_@0:I2C_SUBM@0:WRITE_MO@0:SR_PISO@0:FFD_CLRN@0:OR_NOTAN@0:NOR@0:PMOS-4@2_B is floating.
WARNING: Node I2C_TOP_@0:I2C_SUBM@0:WRITE_MO@0:SR_PISO@0:FFD_CLRN@0:OR_NOTAN@1:NOR@0:PMOS-4@2_B is floating.
WARNING: Node I2C_TOP_@0:I2C_SUBM@0:WRITE_MO@0:SR_PISO@0:FFD_CLRN@1:CLK_NOSO@0:NOR@0:PMOS-4@2_B is floating.
WARNING: Node I2C_TOP_@0:I2C_SUBM@0:WRITE_MO@0:SR_PISO@0:FFD_CLRN@1:CLK_NOSO@0:NOR@1:PMOS-4@2_B is floating.
WARNING: Node I2C_TOP_@0:I2C_SUBM@0:WRITE_MO@0:SR_PISO@0:FFD_CLRN@1:NAND@0:PMOS-4@1_B is floating.
WARNING: Node I2C_TOP_@0:I2C_SUBM@0:WRITE_MO@0:SR_PISO@0:FFD_CLRN@1:NAND@1:PMOS-4@1_B is floating.
WARNING: Node I2C_TOP_@0:I2C_SUBM@0:WRITE_MO@0:SR_PISO@0:FFD_CLRN@1:OR_NOTAN@0:NOR@0:PMOS-4@2_B is floating.
WARNING: Node I2C_TOP_@0:I2C_SUBM@0:WRITE_MO@0:SR_PISO@0:FFD_CLRN@1:OR_NOTAN@1:NOR@0:PMOS-4@2_B is floating.
WARNING: Node I2C_TOP_@0:I2C_SUBM@0:WRITE_MO@0:SR_PISO@0:FFD_CLRN@2:CLK_NOSO@0:NOR@0:PMOS-4@2_B is floating.
WARNING: Node I2C_TOP_@0:I2C_SUBM@0:WRITE_MO@0:SR_PISO@0:FFD_CLRN@2:CLK_NOSO@0:NOR@1:PMOS-4@2_B is floating.
WARNING: Node I2C_TOP_@0:I2C_SUBM@0:WRITE_MO@0:SR_PISO@0:FFD_CLRN@2:NAND@0:PMOS-4@1_B is floating.
WARNING: Node I2C_TOP_@0:I2C_SUBM@0:WRITE_MO@0:SR_PISO@0:FFD_CLRN@2:NAND@1:PMOS-4@1_B is floating.
WARNING: Node I2C_TOP_@0:I2C_SUBM@0:WRITE_MO@0:SR_PISO@0:FFD_CLRN@2:OR_NOTAN@0:NOR@0:PMOS-4@2_B is floating.
WARNING: Node I2C_TOP_@0:I2C_SUBM@0:WRITE_MO@0:SR_PISO@0:FFD_CLRN@2:OR_NOTAN@1:NOR@0:PMOS-4@2_B is floating.
WARNING: Node I2C_TOP_@0:I2C_SUBM@0:WRITE_MO@0:SR_PISO@0:FFD_CLRN@3:CLK_NOSO@0:NOR@0:PMOS-4@2_B is floating.
WARNING: Node I2C_TOP_@0:I2C_SUBM@0:WRITE_MO@0:SR_PISO@0:FFD_CLRN@3:CLK_NOSO@0:NOR@1:PMOS-4@2_B is floating.
WARNING: Node I2C_TOP_@0:I2C_SUBM@0:WRITE_MO@0:SR_PISO@0:FFD_CLRN@3:NAND@0:PMOS-4@1_B is floating.
WARNING: Node I2C_TOP_@0:I2C_SUBM@0:WRITE_MO@0:SR_PISO@0:FFD_CLRN@3:NAND@1:PMOS-4@1_B is floating.
WARNING: Node I2C_TOP_@0:I2C_SUBM@0:WRITE_MO@0:SR_PISO@0:FFD_CLRN@3:OR_NOTAN@0:NOR@0:PMOS-4@2_B is floating.
WARNING: Node I2C_TOP_@0:I2C_SUBM@0:WRITE_MO@0:SR_PISO@0:FFD_CLRN@3:OR_NOTAN@1:NOR@0:PMOS-4@2_B is floating.
WARNING: Node I2C_TOP_@0:I2C_SUBM@0:WRITE_MO@0:SR_PISO@0:FFD_CLRN@4:CLK_NOSO@0:NOR@0:PMOS-4@2_B is floating.
WARNING: Node I2C_TOP_@0:I2C_SUBM@0:WRITE_MO@0:SR_PISO@0:FFD_CLRN@4:CLK_NOSO@0:NOR@1:PMOS-4@2_B is floating.
WARNING: Node I2C_TOP_@0:I2C_SUBM@0:WRITE_MO@0:SR_PISO@0:FFD_CLRN@4:NAND@0:PMOS-4@1_B is floating.
WARNING: Node I2C_TOP_@0:I2C_SUBM@0:WRITE_MO@0:SR_PISO@0:FFD_CLRN@4:NAND@1:PMOS-4@1_B is floating.
WARNING: Node I2C_TOP_@0:I2C_SUBM@0:WRITE_MO@0:SR_PISO@0:FFD_CLRN@4:OR_NOTAN@0:NOR@0:PMOS-4@2_B is floating.
WARNING: Node I2C_TOP_@0:I2C_SUBM@0:WRITE_MO@0:SR_PISO@0:FFD_CLRN@4:OR_NOTAN@1:NOR@0:PMOS-4@2_B is floating.
WARNING: Node I2C_TOP_@0:I2C_SUBM@0:WRITE_MO@0:SR_PISO@0:FFD_CLRN@5:CLK_NOSO@0:NOR@0:PMOS-4@2_B is floating.
WARNING: Node I2C_TOP_@0:I2C_SUBM@0:WRITE_MO@0:SR_PISO@0:FFD_CLRN@5:CLK_NOSO@0:NOR@1:PMOS-4@2_B is floating.
WARNING: Node I2C_TOP_@0:I2C_SUBM@0:WRITE_MO@0:SR_PISO@0:FFD_CLRN@5:NAND@0:PMOS-4@1_B is floating.
WARNING: Node I2C_TOP_@0:I2C_SUBM@0:WRITE_MO@0:SR_PISO@0:FFD_CLRN@5:NAND@1:PMOS-4@1_B is floating.
WARNING: Node I2C_TOP_@0:I2C_SUBM@0:WRITE_MO@0:SR_PISO@0:FFD_CLRN@5:OR_NOTAN@0:NOR@0:PMOS-4@2_B is floating.
WARNING: Node I2C_TOP_@0:I2C_SUBM@0:WRITE_MO@0:SR_PISO@0:FFD_CLRN@5:OR_NOTAN@1:NOR@0:PMOS-4@2_B is floating.
WARNING: Node I2C_TOP_@0:I2C_SUBM@0:WRITE_MO@0:SR_PISO@0:FFD_CLRN@6:CLK_NOSO@0:NOR@0:PMOS-4@2_B is floating.
WARNING: Node I2C_TOP_@0:I2C_SUBM@0:WRITE_MO@0:SR_PISO@0:FFD_CLRN@6:CLK_NOSO@0:NOR@1:PMOS-4@2_B is floating.
WARNING: Node I2C_TOP_@0:I2C_SUBM@0:WRITE_MO@0:SR_PISO@0:FFD_CLRN@6:NAND@0:PMOS-4@1_B is floating.
WARNING: Node I2C_TOP_@0:I2C_SUBM@0:WRITE_MO@0:SR_PISO@0:FFD_CLRN@6:NAND@1:PMOS-4@1_B is floating.
WARNING: Node I2C_TOP_@0:I2C_SUBM@0:WRITE_MO@0:SR_PISO@0:FFD_CLRN@6:OR_NOTAN@0:NOR@0:PMOS-4@2_B is floating.
WARNING: Node I2C_TOP_@0:I2C_SUBM@0:WRITE_MO@0:SR_PISO@0:FFD_CLRN@6:OR_NOTAN@1:NOR@0:PMOS-4@2_B is floating.
WARNING: Node I2C_TOP_@0:I2C_SUBM@0:WRITE_MO@0:SR_PISO@0:FFD_CLRN@7:CLK_NOSO@0:NOR@0:PMOS-4@2_B is floating.
WARNING: Node I2C_TOP_@0:I2C_SUBM@0:WRITE_MO@0:SR_PISO@0:FFD_CLRN@7:CLK_NOSO@0:NOR@1:PMOS-4@2_B is floating.
WARNING: Node I2C_TOP_@0:I2C_SUBM@0:WRITE_MO@0:SR_PISO@0:FFD_CLRN@7:NAND@0:PMOS-4@1_B is floating.
WARNING: Node I2C_TOP_@0:I2C_SUBM@0:WRITE_MO@0:SR_PISO@0:FFD_CLRN@7:NAND@1:PMOS-4@1_B is floating.
WARNING: Node I2C_TOP_@0:I2C_SUBM@0:WRITE_MO@0:SR_PISO@0:FFD_CLRN@7:OR_NOTAN@0:NOR@0:PMOS-4@2_B is floating.
WARNING: Node I2C_TOP_@0:I2C_SUBM@0:WRITE_MO@0:SR_PISO@0:FFD_CLRN@7:OR_NOTAN@1:NOR@0:PMOS-4@2_B is floating.
WARNING: Node I2C_TOP_@0:I2C_SUBM@0:WRITE_MO@0:SR_PISO@0:FFD_CLRN@8:CLK_NOSO@0:NOR@0:PMOS-4@2_B is floating.
WARNING: Node I2C_TOP_@0:I2C_SUBM@0:WRITE_MO@0:SR_PISO@0:FFD_CLRN@8:CLK_NOSO@0:NOR@1:PMOS-4@2_B is floating.
WARNING: Node I2C_TOP_@0:I2C_SUBM@0:WRITE_MO@0:SR_PISO@0:FFD_CLRN@8:NAND@0:PMOS-4@1_B is floating.
WARNING: Node I2C_TOP_@0:I2C_SUBM@0:WRITE_MO@0:SR_PISO@0:FFD_CLRN@8:NAND@1:PMOS-4@1_B is floating.
WARNING: Node I2C_TOP_@0:I2C_SUBM@0:WRITE_MO@0:SR_PISO@0:FFD_CLRN@8:OR_NOTAN@0:NOR@0:PMOS-4@2_B is floating.
WARNING: Node I2C_TOP_@0:I2C_SUBM@0:WRITE_MO@0:SR_PISO@0:FFD_CLRN@8:OR_NOTAN@1:NOR@0:PMOS-4@2_B is floating.
WARNING: Node I2C_TOP_@0:I2C_SUBM@0:WRITE_MO@0:SR_PISO@0:FFD_CLRN@9:CLK_NOSO@0:NOR@0:PMOS-4@2_B is floating.
WARNING: Node I2C_TOP_@0:I2C_SUBM@0:WRITE_MO@0:SR_PISO@0:FFD_CLRN@9:CLK_NOSO@0:NOR@1:PMOS-4@2_B is floating.
WARNING: Node I2C_TOP_@0:I2C_SUBM@0:WRITE_MO@0:SR_PISO@0:FFD_CLRN@9:NAND@0:PMOS-4@1_B is floating.
WARNING: Node I2C_TOP_@0:I2C_SUBM@0:WRITE_MO@0:SR_PISO@0:FFD_CLRN@9:NAND@1:PMOS-4@1_B is floating.
WARNING: Node I2C_TOP_@0:I2C_SUBM@0:WRITE_MO@0:SR_PISO@0:FFD_CLRN@9:OR_NOTAN@0:NOR@0:PMOS-4@2_B is floating.
WARNING: Node I2C_TOP_@0:I2C_SUBM@0:WRITE_MO@0:SR_PISO@0:FFD_CLRN@9:OR_NOTAN@1:NOR@0:PMOS-4@2_B is floating.
WARNING: Node I2C_TOP_@0:I2C_SUBM@0:WRITE_MO@0:SR_PISO@0:FFD_CLRN@10:CLK_NOSO@0:NOR@0:PMOS-4@2_B is floating.
WARNING: Node I2C_TOP_@0:I2C_SUBM@0:WRITE_MO@0:SR_PISO@0:FFD_CLRN@10:CLK_NOSO@0:NOR@1:PMOS-4@2_B is floating.
WARNING: Node I2C_TOP_@0:I2C_SUBM@0:WRITE_MO@0:SR_PISO@0:FFD_CLRN@10:NAND@0:PMOS-4@1_B is floating.
WARNING: Node I2C_TOP_@0:I2C_SUBM@0:WRITE_MO@0:SR_PISO@0:FFD_CLRN@10:NAND@1:PMOS-4@1_B is floating.
WARNING: Node I2C_TOP_@0:I2C_SUBM@0:WRITE_MO@0:SR_PISO@0:FFD_CLRN@10:OR_NOTAN@0:NOR@0:PMOS-4@2_B is floating.
WARNING: Node I2C_TOP_@0:I2C_SUBM@0:WRITE_MO@0:SR_PISO@0:FFD_CLRN@10:OR_NOTAN@1:NOR@0:PMOS-4@2_B is floating.
WARNING: Node I2C_TOP_@0:I2C_SUBM@0:WRITE_MO@0:SR_PISO@0:FFD_CLRN@11:CLK_NOSO@0:NOR@0:PMOS-4@2_B is floating.
WARNING: Node I2C_TOP_@0:I2C_SUBM@0:WRITE_MO@0:SR_PISO@0:FFD_CLRN@11:CLK_NOSO@0:NOR@1:PMOS-4@2_B is floating.
WARNING: Node I2C_TOP_@0:I2C_SUBM@0:WRITE_MO@0:SR_PISO@0:FFD_CLRN@11:NAND@0:PMOS-4@1_B is floating.
WARNING: Node I2C_TOP_@0:I2C_SUBM@0:WRITE_MO@0:SR_PISO@0:FFD_CLRN@11:NAND@1:PMOS-4@1_B is floating.
WARNING: Node I2C_TOP_@0:I2C_SUBM@0:WRITE_MO@0:SR_PISO@0:FFD_CLRN@11:OR_NOTAN@0:NOR@0:PMOS-4@2_B is floating.
WARNING: Node I2C_TOP_@0:I2C_SUBM@0:WRITE_MO@0:SR_PISO@0:FFD_CLRN@11:OR_NOTAN@1:NOR@0:PMOS-4@2_B is floating.
WARNING: Node I2C_TOP_@0:I2C_SUBM@0:WRITE_MO@0:SR_PISO@0:FFD_CLRN@12:CLK_NOSO@0:NOR@0:PMOS-4@2_B is floating.
WARNING: Node I2C_TOP_@0:I2C_SUBM@0:WRITE_MO@0:SR_PISO@0:FFD_CLRN@12:CLK_NOSO@0:NOR@1:PMOS-4@2_B is floating.
WARNING: Node I2C_TOP_@0:I2C_SUBM@0:WRITE_MO@0:SR_PISO@0:FFD_CLRN@12:NAND@0:PMOS-4@1_B is floating.
WARNING: Node I2C_TOP_@0:I2C_SUBM@0:WRITE_MO@0:SR_PISO@0:FFD_CLRN@12:NAND@1:PMOS-4@1_B is floating.
WARNING: Node I2C_TOP_@0:I2C_SUBM@0:WRITE_MO@0:SR_PISO@0:FFD_CLRN@12:OR_NOTAN@0:NOR@0:PMOS-4@2_B is floating.
WARNING: Node I2C_TOP_@0:I2C_SUBM@0:WRITE_MO@0:SR_PISO@0:FFD_CLRN@12:OR_NOTAN@1:NOR@0:PMOS-4@2_B is floating.
WARNING: Node I2C_TOP_@0:I2C_SUBM@0:WRITE_MO@0:SR_PISO@0:FFD_CLRN@13:CLK_NOSO@0:NOR@0:PMOS-4@2_B is floating.
WARNING: Node I2C_TOP_@0:I2C_SUBM@0:WRITE_MO@0:SR_PISO@0:FFD_CLRN@13:CLK_NOSO@0:NOR@1:PMOS-4@2_B is floating.
WARNING: Node I2C_TOP_@0:I2C_SUBM@0:WRITE_MO@0:SR_PISO@0:FFD_CLRN@13:NAND@0:PMOS-4@1_B is floating.
WARNING: Node I2C_TOP_@0:I2C_SUBM@0:WRITE_MO@0:SR_PISO@0:FFD_CLRN@13:NAND@1:PMOS-4@1_B is floating.
WARNING: Node I2C_TOP_@0:I2C_SUBM@0:WRITE_MO@0:SR_PISO@0:FFD_CLRN@13:OR_NOTAN@0:NOR@0:PMOS-4@2_B is floating.
WARNING: Node I2C_TOP_@0:I2C_SUBM@0:WRITE_MO@0:SR_PISO@0:FFD_CLRN@13:OR_NOTAN@1:NOR@0:PMOS-4@2_B is floating.
WARNING: Node I2C_TOP_@0:I2C_SUBM@0:WRITE_MO@0:SR_PISO@0:FFD_CLRN@14:CLK_NOSO@0:NOR@0:PMOS-4@2_B is floating.
WARNING: Node I2C_TOP_@0:I2C_SUBM@0:WRITE_MO@0:SR_PISO@0:FFD_CLRN@14:CLK_NOSO@0:NOR@1:PMOS-4@2_B is floating.
WARNING: Node I2C_TOP_@0:I2C_SUBM@0:WRITE_MO@0:SR_PISO@0:FFD_CLRN@14:NAND@0:PMOS-4@1_B is floating.
WARNING: Node I2C_TOP_@0:I2C_SUBM@0:WRITE_MO@0:SR_PISO@0:FFD_CLRN@14:NAND@1:PMOS-4@1_B is floating.
WARNING: Node I2C_TOP_@0:I2C_SUBM@0:WRITE_MO@0:SR_PISO@0:FFD_CLRN@14:OR_NOTAN@0:NOR@0:PMOS-4@2_B is floating.
WARNING: Node I2C_TOP_@0:I2C_SUBM@0:WRITE_MO@0:SR_PISO@0:FFD_CLRN@14:OR_NOTAN@1:NOR@0:PMOS-4@2_B is floating.
WARNING: Node I2C_TOP_@0:I2C_SUBM@0:WRITE_MO@0:SR_PISO@0:FFD_CLRN@15:CLK_NOSO@0:NOR@0:PMOS-4@2_B is floating.
WARNING: Node I2C_TOP_@0:I2C_SUBM@0:WRITE_MO@0:SR_PISO@0:FFD_CLRN@15:CLK_NOSO@0:NOR@1:PMOS-4@2_B is floating.
WARNING: Node I2C_TOP_@0:I2C_SUBM@0:WRITE_MO@0:SR_PISO@0:FFD_CLRN@15:NAND@0:PMOS-4@1_B is floating.
WARNING: Node I2C_TOP_@0:I2C_SUBM@0:WRITE_MO@0:SR_PISO@0:FFD_CLRN@15:NAND@1:PMOS-4@1_B is floating.
WARNING: Node I2C_TOP_@0:I2C_SUBM@0:WRITE_MO@0:SR_PISO@0:FFD_CLRN@15:OR_NOTAN@0:NOR@0:PMOS-4@2_B is floating.
WARNING: Node I2C_TOP_@0:I2C_SUBM@0:WRITE_MO@0:SR_PISO@0:FFD_CLRN@15:OR_NOTAN@1:NOR@0:PMOS-4@2_B is floating.
WARNING: Node I2C_TOP_@0:I2C_SUBM@0:WRITE_MO@0:SR_PISO@0:FFD_CLRN@16:CLK_NOSO@0:NOR@0:PMOS-4@2_B is floating.
WARNING: Node I2C_TOP_@0:I2C_SUBM@0:WRITE_MO@0:SR_PISO@0:FFD_CLRN@16:CLK_NOSO@0:NOR@1:PMOS-4@2_B is floating.
WARNING: Node I2C_TOP_@0:I2C_SUBM@0:WRITE_MO@0:SR_PISO@0:FFD_CLRN@16:NAND@0:PMOS-4@1_B is floating.
WARNING: Node I2C_TOP_@0:I2C_SUBM@0:WRITE_MO@0:SR_PISO@0:FFD_CLRN@16:NAND@1:PMOS-4@1_B is floating.
WARNING: Node I2C_TOP_@0:I2C_SUBM@0:WRITE_MO@0:SR_PISO@0:FFD_CLRN@16:OR_NOTAN@0:NOR@0:PMOS-4@2_B is floating.
WARNING: Node I2C_TOP_@0:I2C_SUBM@0:WRITE_MO@0:SR_PISO@0:FFD_CLRN@16:OR_NOTAN@1:NOR@0:PMOS-4@2_B is floating.
WARNING: Node I2C_TOP_@0:I2C_SUBM@0:WRITE_MO@0:SR_PISO@0:NAND@0:PMOS-4@1_B is floating.
WARNING: Node I2C_TOP_@0:I2C_SUBM@0:WRITE_MO@0:SR_PISO@0:NAND@1:PMOS-4@1_B is floating.
WARNING: Node I2C_TOP_@0:I2C_SUBM@0:WRITE_MO@0:SR_PISO@0:NAND@2:PMOS-4@1_B is floating.
WARNING: Node I2C_TOP_@0:I2C_SUBM@0:WRITE_MO@0:SR_PISO@0:NAND@3:PMOS-4@1_B is floating.
WARNING: Node I2C_TOP_@0:I2C_SUBM@0:WRITE_MO@0:SR_PISO@0:NAND@4:PMOS-4@1_B is floating.
WARNING: Node I2C_TOP_@0:I2C_SUBM@0:WRITE_MO@0:SR_PISO@0:NAND@5:PMOS-4@1_B is floating.
WARNING: Node I2C_TOP_@0:I2C_SUBM@0:WRITE_MO@0:SR_PISO@0:NAND@6:PMOS-4@1_B is floating.
WARNING: Node I2C_TOP_@0:I2C_SUBM@0:WRITE_MO@0:SR_PISO@0:NAND@7:PMOS-4@1_B is floating.
WARNING: Node I2C_TOP_@0:I2C_SUBM@0:WRITE_MO@0:SR_PISO@0:NAND@8:PMOS-4@1_B is floating.
WARNING: Node I2C_TOP_@0:I2C_SUBM@0:WRITE_MO@0:SR_PISO@0:NAND@9:PMOS-4@1_B is floating.
WARNING: Node I2C_TOP_@0:I2C_SUBM@0:WRITE_MO@0:SR_PISO@0:NAND@10:PMOS-4@1_B is floating.
WARNING: Node I2C_TOP_@0:I2C_SUBM@0:WRITE_MO@0:SR_PISO@0:NAND@11:PMOS-4@1_B is floating.
WARNING: Node I2C_TOP_@0:I2C_SUBM@0:WRITE_MO@0:SR_PISO@0:NAND@12:PMOS-4@1_B is floating.
WARNING: Node I2C_TOP_@0:I2C_SUBM@0:WRITE_MO@0:SR_PISO@0:NAND@13:PMOS-4@1_B is floating.
WARNING: Node I2C_TOP_@0:I2C_SUBM@0:WRITE_MO@0:SR_PISO@0:NAND@14:PMOS-4@1_B is floating.
WARNING: Node I2C_TOP_@0:I2C_SUBM@0:WRITE_MO@0:SR_PISO@0:NAND@15:PMOS-4@1_B is floating.
WARNING: Node I2C_TOP_@0:I2C_SUBM@0:WRITE_MO@0:SR_PISO@0:NAND@16:PMOS-4@1_B is floating.
WARNING: Node I2C_TOP_@0:SS_DETEC@0:NMOS-4@0_B is floating.
WARNING: Node I2C_TOP_@0:NET@9 is floating.
WARNING: Node I2C_TOP_@0:SS_DETEC@0:NMOS-4@1_B is floating.
WARNING: Node I2C_TOP_@0:SS_DETEC@0:FFD_CLRN@0:CLK_NOSO@0:NOR@0:PMOS-4@2_B is floating.
WARNING: Node I2C_TOP_@0:SS_DETEC@0:FFD_CLRN@0:CLK_NOSO@0:NOR@1:PMOS-4@2_B is floating.
WARNING: Node I2C_TOP_@0:SS_DETEC@0:FFD_CLRN@0:NAND@0:PMOS-4@1_B is floating.
WARNING: Node I2C_TOP_@0:SS_DETEC@0:FFD_CLRN@0:NAND@1:PMOS-4@1_B is floating.
WARNING: Node I2C_TOP_@0:SS_DETEC@0:FFD_CLRN@0:OR_NOTAN@0:NOR@0:PMOS-4@2_B is floating.
WARNING: Node I2C_TOP_@0:SS_DETEC@0:FFD_CLRN@0:OR_NOTAN@1:NOR@0:PMOS-4@2_B is floating.
WARNING: Node I2C_TOP_@0:SS_DETEC@0:FFD_CLRN@1:CLK_NOSO@0:NOR@0:PMOS-4@2_B is floating.
WARNING: Node I2C_TOP_@0:SS_DETEC@0:FFD_CLRN@1:CLK_NOSO@0:NOR@1:PMOS-4@2_B is floating.
WARNING: Node I2C_TOP_@0:SS_DETEC@0:FFD_CLRN@1:NAND@0:PMOS-4@1_B is floating.
WARNING: Node I2C_TOP_@0:SS_DETEC@0:FFD_CLRN@1:NAND@1:PMOS-4@1_B is floating.
WARNING: Node I2C_TOP_@0:SS_DETEC@0:FFD_CLRN@1:OR_NOTAN@0:NOR@0:PMOS-4@2_B is floating.
WARNING: Node I2C_TOP_@0:SS_DETEC@0:FFD_CLRN@1:OR_NOTAN@1:NOR@0:PMOS-4@2_B is floating.

WARNING: Less than two connections to node i2c_top_@0:i2c_subm@0:and@0:nand@0:pmos-4@1_b.  This node is used by m:i2c_top_@0:i2c_subm@0:and@0:nand@0:pmos-4@1.
WARNING: Less than two connections to node i2c_top_@0:i2c_subm@0:clk_noso@0:nor@0:pmos-4@2_b.  This node is used by m:i2c_top_@0:i2c_subm@0:clk_noso@0:nor@0:pmos-4@2.
WARNING: Less than two connections to node i2c_top_@0:i2c_subm@0:clk_noso@0:nor@1:pmos-4@2_b.  This node is used by m:i2c_top_@0:i2c_subm@0:clk_noso@0:nor@1:pmos-4@2.
WARNING: Less than two connections to node i2c_top_@0:i2c_subm@0:counter_@0:_3b_nand@0:nand@0:pmos-4@1_b.  This node is used by m:i2c_top_@0:i2c_subm@0:counter_@0:_3b_nand@0:nand@0:pmos-4@1.
WARNING: Less than two connections to node i2c_top_@0:i2c_subm@0:counter_@0:_3b_nand@0:nand@1:pmos-4@1_b.  This node is used by m:i2c_top_@0:i2c_subm@0:counter_@0:_3b_nand@0:nand@1:pmos-4@1.
WARNING: Less than two connections to node i2c_top_@0:i2c_subm@0:counter_@0:_3b_nand@0:nand@2:pmos-4@1_b.  This node is used by m:i2c_top_@0:i2c_subm@0:counter_@0:_3b_nand@0:nand@2:pmos-4@1.
WARNING: Less than two connections to node i2c_top_@0:i2c_subm@0:counter_@0:_3b_nand@0:nand@3:pmos-4@1_b.  This node is used by m:i2c_top_@0:i2c_subm@0:counter_@0:_3b_nand@0:nand@3:pmos-4@1.
WARNING: Less than two connections to node i2c_top_@0:i2c_subm@0:counter_@0:_3b_nand@0:nor@0:pmos-4@2_b.  This node is used by m:i2c_top_@0:i2c_subm@0:counter_@0:_3b_nand@0:nor@0:pmos-4@2.
WARNING: Less than two connections to node i2c_top_@0:i2c_subm@0:counter_@0:_3b_count@0:ffd_clrn@0:clk_noso@0:nor@0:pmos-4@2_b.  This node is used by m:i2c_top_@0:i2c_subm@0:counter_@0:_3b_count@0:ffd_clrn@0:clk_noso@0:nor@0:pmos-4@2.
WARNING: Less than two connections to node i2c_top_@0:i2c_subm@0:counter_@0:_3b_count@0:ffd_clrn@0:clk_noso@0:nor@1:pmos-4@2_b.  This node is used by m:i2c_top_@0:i2c_subm@0:counter_@0:_3b_count@0:ffd_clrn@0:clk_noso@0:nor@1:pmos-4@2.
WARNING: Less than two connections to node i2c_top_@0:i2c_subm@0:counter_@0:_3b_count@0:ffd_clrn@0:nand@0:pmos-4@1_b.  This node is used by m:i2c_top_@0:i2c_subm@0:counter_@0:_3b_count@0:ffd_clrn@0:nand@0:pmos-4@1.
WARNING: Less than two connections to node i2c_top_@0:i2c_subm@0:counter_@0:_3b_count@0:ffd_clrn@0:nand@1:pmos-4@1_b.  This node is used by m:i2c_top_@0:i2c_subm@0:counter_@0:_3b_count@0:ffd_clrn@0:nand@1:pmos-4@1.
WARNING: Less than two connections to node i2c_top_@0:i2c_subm@0:counter_@0:_3b_count@0:ffd_clrn@0:or_notan@0:nor@0:pmos-4@2_b.  This node is used by m:i2c_top_@0:i2c_subm@0:counter_@0:_3b_count@0:ffd_clrn@0:or_notan@0:nor@0:pmos-4@2.
WARNING: Less than two connections to node i2c_top_@0:i2c_subm@0:counter_@0:_3b_count@0:ffd_clrn@0:or_notan@1:nor@0:pmos-4@2_b.  This node is used by m:i2c_top_@0:i2c_subm@0:counter_@0:_3b_count@0:ffd_clrn@0:or_notan@1:nor@0:pmos-4@2.
WARNING: Less than two connections to node i2c_top_@0:i2c_subm@0:counter_@0:_3b_count@0:ffd_clrn@1:clk_noso@0:nor@0:pmos-4@2_b.  This node is used by m:i2c_top_@0:i2c_subm@0:counter_@0:_3b_count@0:ffd_clrn@1:clk_noso@0:nor@0:pmos-4@2.
WARNING: Less than two connections to node i2c_top_@0:i2c_subm@0:counter_@0:_3b_count@0:ffd_clrn@1:clk_noso@0:nor@1:pmos-4@2_b.  This node is used by m:i2c_top_@0:i2c_subm@0:counter_@0:_3b_count@0:ffd_clrn@1:clk_noso@0:nor@1:pmos-4@2.
WARNING: Less than two connections to node i2c_top_@0:i2c_subm@0:counter_@0:_3b_count@0:ffd_clrn@1:nand@0:pmos-4@1_b.  This node is used by m:i2c_top_@0:i2c_subm@0:counter_@0:_3b_count@0:ffd_clrn@1:nand@0:pmos-4@1.
WARNING: Less than two connections to node i2c_top_@0:i2c_subm@0:counter_@0:_3b_count@0:ffd_clrn@1:nand@1:pmos-4@1_b.  This node is used by m:i2c_top_@0:i2c_subm@0:counter_@0:_3b_count@0:ffd_clrn@1:nand@1:pmos-4@1.
WARNING: Less than two connections to node i2c_top_@0:i2c_subm@0:counter_@0:_3b_count@0:ffd_clrn@1:or_notan@0:nor@0:pmos-4@2_b.  This node is used by m:i2c_top_@0:i2c_subm@0:counter_@0:_3b_count@0:ffd_clrn@1:or_notan@0:nor@0:pmos-4@2.
WARNING: Less than two connections to node i2c_top_@0:i2c_subm@0:counter_@0:_3b_count@0:ffd_clrn@1:or_notan@1:nor@0:pmos-4@2_b.  This node is used by m:i2c_top_@0:i2c_subm@0:counter_@0:_3b_count@0:ffd_clrn@1:or_notan@1:nor@0:pmos-4@2.
WARNING: Less than two connections to node i2c_top_@0:i2c_subm@0:counter_@0:_3b_count@0:ffd_clrn@2:clk_noso@0:nor@0:pmos-4@2_b.  This node is used by m:i2c_top_@0:i2c_subm@0:counter_@0:_3b_count@0:ffd_clrn@2:clk_noso@0:nor@0:pmos-4@2.
WARNING: Less than two connections to node i2c_top_@0:i2c_subm@0:counter_@0:_3b_count@0:ffd_clrn@2:clk_noso@0:nor@1:pmos-4@2_b.  This node is used by m:i2c_top_@0:i2c_subm@0:counter_@0:_3b_count@0:ffd_clrn@2:clk_noso@0:nor@1:pmos-4@2.
WARNING: Less than two connections to node i2c_top_@0:i2c_subm@0:counter_@0:_3b_count@0:ffd_clrn@2:nand@0:pmos-4@1_b.  This node is used by m:i2c_top_@0:i2c_subm@0:counter_@0:_3b_count@0:ffd_clrn@2:nand@0:pmos-4@1.
WARNING: Less than two connections to node i2c_top_@0:i2c_subm@0:counter_@0:_3b_count@0:ffd_clrn@2:nand@1:pmos-4@1_b.  This node is used by m:i2c_top_@0:i2c_subm@0:counter_@0:_3b_count@0:ffd_clrn@2:nand@1:pmos-4@1.
WARNING: Less than two connections to node i2c_top_@0:i2c_subm@0:counter_@0:_3b_count@0:ffd_clrn@2:or_notan@0:nor@0:pmos-4@2_b.  This node is used by m:i2c_top_@0:i2c_subm@0:counter_@0:_3b_count@0:ffd_clrn@2:or_notan@0:nor@0:pmos-4@2.
WARNING: Less than two connections to node i2c_top_@0:i2c_subm@0:counter_@0:_3b_count@0:ffd_clrn@2:or_notan@1:nor@0:pmos-4@2_b.  This node is used by m:i2c_top_@0:i2c_subm@0:counter_@0:_3b_count@0:ffd_clrn@2:or_notan@1:nor@0:pmos-4@2.
WARNING: Less than two connections to node i2c_top_@0:i2c_subm@0:counter_@0:_3b_count@0:nand@0:pmos-4@1_b.  This node is used by m:i2c_top_@0:i2c_subm@0:counter_@0:_3b_count@0:nand@0:pmos-4@1.
WARNING: Less than two connections to node i2c_top_@0:i2c_subm@0:counter_@0:_3b_count@0:xor@0:nand@0:pmos-4@1_b.  This node is used by m:i2c_top_@0:i2c_subm@0:counter_@0:_3b_count@0:xor@0:nand@0:pmos-4@1.
WARNING: Less than two connections to node i2c_top_@0:i2c_subm@0:counter_@0:_3b_count@0:xor@0:nand@1:pmos-4@1_b.  This node is used by m:i2c_top_@0:i2c_subm@0:counter_@0:_3b_count@0:xor@0:nand@1:pmos-4@1.
WARNING: Less than two connections to node i2c_top_@0:i2c_subm@0:counter_@0:_3b_count@0:xor@0:nand@2:pmos-4@1_b.  This node is used by m:i2c_top_@0:i2c_subm@0:counter_@0:_3b_count@0:xor@0:nand@2:pmos-4@1.
WARNING: Less than two connections to node i2c_top_@0:i2c_subm@0:counter_@0:_3b_count@0:xor@0:nand@3:pmos-4@1_b.  This node is used by m:i2c_top_@0:i2c_subm@0:counter_@0:_3b_count@0:xor@0:nand@3:pmos-4@1.
WARNING: Less than two connections to node i2c_top_@0:i2c_subm@0:counter_@0:_3b_count@0:xor@1:nand@0:pmos-4@1_b.  This node is used by m:i2c_top_@0:i2c_subm@0:counter_@0:_3b_count@0:xor@1:nand@0:pmos-4@1.
WARNING: Less than two connections to node i2c_top_@0:i2c_subm@0:counter_@0:_3b_count@0:xor@1:nand@1:pmos-4@1_b.  This node is used by m:i2c_top_@0:i2c_subm@0:counter_@0:_3b_count@0:xor@1:nand@1:pmos-4@1.
WARNING: Less than two connections to node i2c_top_@0:i2c_subm@0:counter_@0:_3b_count@0:xor@1:nand@2:pmos-4@1_b.  This node is used by m:i2c_top_@0:i2c_subm@0:counter_@0:_3b_count@0:xor@1:nand@2:pmos-4@1.
WARNING: Less than two connections to node i2c_top_@0:i2c_subm@0:counter_@0:_3b_count@0:xor@1:nand@3:pmos-4@1_b.  This node is used by m:i2c_top_@0:i2c_subm@0:counter_@0:_3b_count@0:xor@1:nand@3:pmos-4@1.
WARNING: Less than two connections to node i2c_top_@0:i2c_subm@0:counter_@0:ffd_clrn@0:clk_noso@0:nor@0:pmos-4@2_b.  This node is used by m:i2c_top_@0:i2c_subm@0:counter_@0:ffd_clrn@0:clk_noso@0:nor@0:pmos-4@2.
WARNING: Less than two connections to node i2c_top_@0:i2c_subm@0:counter_@0:ffd_clrn@0:clk_noso@0:nor@1:pmos-4@2_b.  This node is used by m:i2c_top_@0:i2c_subm@0:counter_@0:ffd_clrn@0:clk_noso@0:nor@1:pmos-4@2.
WARNING: Less than two connections to node i2c_top_@0:i2c_subm@0:counter_@0:ffd_clrn@0:nand@0:pmos-4@1_b.  This node is used by m:i2c_top_@0:i2c_subm@0:counter_@0:ffd_clrn@0:nand@0:pmos-4@1.
WARNING: Less than two connections to node i2c_top_@0:i2c_subm@0:counter_@0:ffd_clrn@0:nand@1:pmos-4@1_b.  This node is used by m:i2c_top_@0:i2c_subm@0:counter_@0:ffd_clrn@0:nand@1:pmos-4@1.
WARNING: Less than two connections to node i2c_top_@0:i2c_subm@0:counter_@0:ffd_clrn@0:or_notan@0:nor@0:pmos-4@2_b.  This node is used by m:i2c_top_@0:i2c_subm@0:counter_@0:ffd_clrn@0:or_notan@0:nor@0:pmos-4@2.
WARNING: Less than two connections to node i2c_top_@0:i2c_subm@0:counter_@0:ffd_clrn@0:or_notan@1:nor@0:pmos-4@2_b.  This node is used by m:i2c_top_@0:i2c_subm@0:counter_@0:ffd_clrn@0:or_notan@1:nor@0:pmos-4@2.
WARNING: Less than two connections to node i2c_top_@0:i2c_subm@0:counter_@0:ffd_clrn@1:clk_noso@0:nor@0:pmos-4@2_b.  This node is used by m:i2c_top_@0:i2c_subm@0:counter_@0:ffd_clrn@1:clk_noso@0:nor@0:pmos-4@2.
WARNING: Less than two connections to node i2c_top_@0:i2c_subm@0:counter_@0:ffd_clrn@1:clk_noso@0:nor@1:pmos-4@2_b.  This node is used by m:i2c_top_@0:i2c_subm@0:counter_@0:ffd_clrn@1:clk_noso@0:nor@1:pmos-4@2.
WARNING: Less than two connections to node i2c_top_@0:i2c_subm@0:counter_@0:ffd_clrn@1:nand@0:pmos-4@1_b.  This node is used by m:i2c_top_@0:i2c_subm@0:counter_@0:ffd_clrn@1:nand@0:pmos-4@1.
WARNING: Less than two connections to node i2c_top_@0:i2c_subm@0:counter_@0:ffd_clrn@1:nand@1:pmos-4@1_b.  This node is used by m:i2c_top_@0:i2c_subm@0:counter_@0:ffd_clrn@1:nand@1:pmos-4@1.
WARNING: Less than two connections to node i2c_top_@0:i2c_subm@0:counter_@0:ffd_clrn@1:or_notan@0:nor@0:pmos-4@2_b.  This node is used by m:i2c_top_@0:i2c_subm@0:counter_@0:ffd_clrn@1:or_notan@0:nor@0:pmos-4@2.
WARNING: Less than two connections to node i2c_top_@0:i2c_subm@0:counter_@0:ffd_clrn@1:or_notan@1:nor@0:pmos-4@2_b.  This node is used by m:i2c_top_@0:i2c_subm@0:counter_@0:ffd_clrn@1:or_notan@1:nor@0:pmos-4@2.
WARNING: Less than two connections to node i2c_top_@0:i2c_subm@0:counter_@0:nand@1:pmos-4@1_b.  This node is used by m:i2c_top_@0:i2c_subm@0:counter_@0:nand@1:pmos-4@1.
WARNING: Less than two connections to node i2c_top_@0:i2c_subm@0:counter_@0:nor@0:pmos-4@2_b.  This node is used by m:i2c_top_@0:i2c_subm@0:counter_@0:nor@0:pmos-4@2.
WARNING: Less than two connections to node i2c_top_@0:i2c_subm@0:counter_@0:nor@1:pmos-4@2_b.  This node is used by m:i2c_top_@0:i2c_subm@0:counter_@0:nor@1:pmos-4@2.
WARNING: Less than two connections to node i2c_top_@0:i2c_subm@0:counter_@0:set_rese@0:nor@0:pmos-4@2_b.  This node is used by m:i2c_top_@0:i2c_subm@0:counter_@0:set_rese@0:nor@0:pmos-4@2.
WARNING: Less than two connections to node i2c_top_@0:i2c_subm@0:counter_@0:set_rese@0:nor@1:pmos-4@2_b.  This node is used by m:i2c_top_@0:i2c_subm@0:counter_@0:set_rese@0:nor@1:pmos-4@2.
WARNING: Less than two connections to node i2c_top_@0:i2c_subm@0:counter_@0:set_rese@1:nor@0:pmos-4@2_b.  This node is used by m:i2c_top_@0:i2c_subm@0:counter_@0:set_rese@1:nor@0:pmos-4@2.
WARNING: Less than two connections to node i2c_top_@0:i2c_subm@0:counter_@0:set_rese@1:nor@1:pmos-4@2_b.  This node is used by m:i2c_top_@0:i2c_subm@0:counter_@0:set_rese@1:nor@1:pmos-4@2.
WARNING: Less than two connections to node i2c_top_@0:i2c_subm@0:ffd_clrn@0:clk_noso@0:nor@0:pmos-4@2_b.  This node is used by m:i2c_top_@0:i2c_subm@0:ffd_clrn@0:clk_noso@0:nor@0:pmos-4@2.
WARNING: Less than two connections to node i2c_top_@0:i2c_subm@0:ffd_clrn@0:clk_noso@0:nor@1:pmos-4@2_b.  This node is used by m:i2c_top_@0:i2c_subm@0:ffd_clrn@0:clk_noso@0:nor@1:pmos-4@2.
WARNING: Less than two connections to node i2c_top_@0:i2c_subm@0:ffd_clrn@0:nand@0:pmos-4@1_b.  This node is used by m:i2c_top_@0:i2c_subm@0:ffd_clrn@0:nand@0:pmos-4@1.
WARNING: Less than two connections to node i2c_top_@0:i2c_subm@0:ffd_clrn@0:nand@1:pmos-4@1_b.  This node is used by m:i2c_top_@0:i2c_subm@0:ffd_clrn@0:nand@1:pmos-4@1.
WARNING: Less than two connections to node i2c_top_@0:i2c_subm@0:ffd_clrn@0:or_notan@0:nor@0:pmos-4@2_b.  This node is used by m:i2c_top_@0:i2c_subm@0:ffd_clrn@0:or_notan@0:nor@0:pmos-4@2.
WARNING: Less than two connections to node i2c_top_@0:i2c_subm@0:ffd_clrn@0:or_notan@1:nor@0:pmos-4@2_b.  This node is used by m:i2c_top_@0:i2c_subm@0:ffd_clrn@0:or_notan@1:nor@0:pmos-4@2.
WARNING: Less than two connections to node i2c_top_@0:i2c_subm@0:nor@0:pmos-4@2_b.  This node is used by m:i2c_top_@0:i2c_subm@0:nor@0:pmos-4@2.
WARNING: Less than two connections to node i2c_top_@0:i2c_subm@0:or@0:nor@0:pmos-4@2_b.  This node is used by m:i2c_top_@0:i2c_subm@0:or@0:nor@0:pmos-4@2.
WARNING: Less than two connections to node i2c_top_@0:i2c_subm@0:or@1:nor@0:pmos-4@2_b.  This node is used by m:i2c_top_@0:i2c_subm@0:or@1:nor@0:pmos-4@2.
WARNING: Less than two connections to node i2c_top_@0:i2c_subm@0:or@2:nor@0:pmos-4@2_b.  This node is used by m:i2c_top_@0:i2c_subm@0:or@2:nor@0:pmos-4@2.
WARNING: Less than two connections to node i2c_top_@0:i2c_subm@0:or@4:nor@0:pmos-4@2_b.  This node is used by m:i2c_top_@0:i2c_subm@0:or@4:nor@0:pmos-4@2.
WARNING: Less than two connections to node i2c_top_@0:i2c_subm@0:r_w_modu@0:and@0:nand@0:pmos-4@1_b.  This node is used by m:i2c_top_@0:i2c_subm@0:r_w_modu@0:and@0:nand@0:pmos-4@1.
WARNING: Less than two connections to node i2c_top_@0:i2c_subm@0:r_w_modu@0:and@1:nand@0:pmos-4@1_b.  This node is used by m:i2c_top_@0:i2c_subm@0:r_w_modu@0:and@1:nand@0:pmos-4@1.
WARNING: Less than two connections to node i2c_top_@0:i2c_subm@0:r_w_modu@0:and@2:nand@0:pmos-4@1_b.  This node is used by m:i2c_top_@0:i2c_subm@0:r_w_modu@0:and@2:nand@0:pmos-4@1.
WARNING: Less than two connections to node i2c_top_@0:i2c_subm@0:r_w_modu@0:ffd_clrn@0:clk_noso@0:nor@0:pmos-4@2_b.  This node is used by m:i2c_top_@0:i2c_subm@0:r_w_modu@0:ffd_clrn@0:clk_noso@0:nor@0:pmos-4@2.
WARNING: Less than two connections to node i2c_top_@0:i2c_subm@0:r_w_modu@0:ffd_clrn@0:clk_noso@0:nor@1:pmos-4@2_b.  This node is used by m:i2c_top_@0:i2c_subm@0:r_w_modu@0:ffd_clrn@0:clk_noso@0:nor@1:pmos-4@2.
WARNING: Less than two connections to node i2c_top_@0:i2c_subm@0:r_w_modu@0:ffd_clrn@0:nand@0:pmos-4@1_b.  This node is used by m:i2c_top_@0:i2c_subm@0:r_w_modu@0:ffd_clrn@0:nand@0:pmos-4@1.
WARNING: Less than two connections to node i2c_top_@0:i2c_subm@0:r_w_modu@0:ffd_clrn@0:nand@1:pmos-4@1_b.  This node is used by m:i2c_top_@0:i2c_subm@0:r_w_modu@0:ffd_clrn@0:nand@1:pmos-4@1.
WARNING: Less than two connections to node i2c_top_@0:i2c_subm@0:r_w_modu@0:ffd_clrn@0:or_notan@0:nor@0:pmos-4@2_b.  This node is used by m:i2c_top_@0:i2c_subm@0:r_w_modu@0:ffd_clrn@0:or_notan@0:nor@0:pmos-4@2.
WARNING: Less than two connections to node i2c_top_@0:i2c_subm@0:r_w_modu@0:ffd_clrn@0:or_notan@1:nor@0:pmos-4@2_b.  This node is used by m:i2c_top_@0:i2c_subm@0:r_w_modu@0:ffd_clrn@0:or_notan@1:nor@0:pmos-4@2.
WARNING: Less than two connections to node i2c_top_@0:i2c_subm@0:r_w_modu@0:nor@0:pmos-4@2_b.  This node is used by m:i2c_top_@0:i2c_subm@0:r_w_modu@0:nor@0:pmos-4@2.
WARNING: Less than two connections to node i2c_top_@0:i2c_subm@0:sr_sipo_@0:ffd_clrn@0:clk_noso@0:nor@0:pmos-4@2_b.  This node is used by m:i2c_top_@0:i2c_subm@0:sr_sipo_@0:ffd_clrn@0:clk_noso@0:nor@0:pmos-4@2.
WARNING: Less than two connections to node i2c_top_@0:i2c_subm@0:sr_sipo_@0:ffd_clrn@0:clk_noso@0:nor@1:pmos-4@2_b.  This node is used by m:i2c_top_@0:i2c_subm@0:sr_sipo_@0:ffd_clrn@0:clk_noso@0:nor@1:pmos-4@2.
WARNING: Less than two connections to node i2c_top_@0:i2c_subm@0:sr_sipo_@0:ffd_clrn@0:nand@0:pmos-4@1_b.  This node is used by m:i2c_top_@0:i2c_subm@0:sr_sipo_@0:ffd_clrn@0:nand@0:pmos-4@1.
WARNING: Less than two connections to node i2c_top_@0:i2c_subm@0:sr_sipo_@0:ffd_clrn@0:nand@1:pmos-4@1_b.  This node is used by m:i2c_top_@0:i2c_subm@0:sr_sipo_@0:ffd_clrn@0:nand@1:pmos-4@1.
WARNING: Less than two connections to node i2c_top_@0:i2c_subm@0:sr_sipo_@0:ffd_clrn@0:or_notan@0:nor@0:pmos-4@2_b.  This node is used by m:i2c_top_@0:i2c_subm@0:sr_sipo_@0:ffd_clrn@0:or_notan@0:nor@0:pmos-4@2.
WARNING: Less than two connections to node i2c_top_@0:i2c_subm@0:sr_sipo_@0:ffd_clrn@0:or_notan@1:nor@0:pmos-4@2_b.  This node is used by m:i2c_top_@0:i2c_subm@0:sr_sipo_@0:ffd_clrn@0:or_notan@1:nor@0:pmos-4@2.
WARNING: Less than two connections to node i2c_top_@0:i2c_subm@0:sr_sipo_@0:ffd_clrn@1:clk_noso@0:nor@0:pmos-4@2_b.  This node is used by m:i2c_top_@0:i2c_subm@0:sr_sipo_@0:ffd_clrn@1:clk_noso@0:nor@0:pmos-4@2.
WARNING: Less than two connections to node i2c_top_@0:i2c_subm@0:sr_sipo_@0:ffd_clrn@1:clk_noso@0:nor@1:pmos-4@2_b.  This node is used by m:i2c_top_@0:i2c_subm@0:sr_sipo_@0:ffd_clrn@1:clk_noso@0:nor@1:pmos-4@2.
WARNING: Less than two connections to node i2c_top_@0:i2c_subm@0:sr_sipo_@0:ffd_clrn@1:nand@0:pmos-4@1_b.  This node is used by m:i2c_top_@0:i2c_subm@0:sr_sipo_@0:ffd_clrn@1:nand@0:pmos-4@1.
WARNING: Less than two connections to node i2c_top_@0:i2c_subm@0:sr_sipo_@0:ffd_clrn@1:nand@1:pmos-4@1_b.  This node is used by m:i2c_top_@0:i2c_subm@0:sr_sipo_@0:ffd_clrn@1:nand@1:pmos-4@1.
WARNING: Less than two connections to node i2c_top_@0:i2c_subm@0:sr_sipo_@0:ffd_clrn@1:or_notan@0:nor@0:pmos-4@2_b.  This node is used by m:i2c_top_@0:i2c_subm@0:sr_sipo_@0:ffd_clrn@1:or_notan@0:nor@0:pmos-4@2.
WARNING: Less than two connections to node i2c_top_@0:i2c_subm@0:sr_sipo_@0:ffd_clrn@1:or_notan@1:nor@0:pmos-4@2_b.  This node is used by m:i2c_top_@0:i2c_subm@0:sr_sipo_@0:ffd_clrn@1:or_notan@1:nor@0:pmos-4@2.
WARNING: Less than two connections to node i2c_top_@0:i2c_subm@0:sr_sipo_@0:ffd_clrn@2:clk_noso@0:nor@0:pmos-4@2_b.  This node is used by m:i2c_top_@0:i2c_subm@0:sr_sipo_@0:ffd_clrn@2:clk_noso@0:nor@0:pmos-4@2.
WARNING: Less than two connections to node i2c_top_@0:i2c_subm@0:sr_sipo_@0:ffd_clrn@2:clk_noso@0:nor@1:pmos-4@2_b.  This node is used by m:i2c_top_@0:i2c_subm@0:sr_sipo_@0:ffd_clrn@2:clk_noso@0:nor@1:pmos-4@2.
WARNING: Less than two connections to node i2c_top_@0:i2c_subm@0:sr_sipo_@0:ffd_clrn@2:nand@0:pmos-4@1_b.  This node is used by m:i2c_top_@0:i2c_subm@0:sr_sipo_@0:ffd_clrn@2:nand@0:pmos-4@1.
WARNING: Less than two connections to node i2c_top_@0:i2c_subm@0:sr_sipo_@0:ffd_clrn@2:nand@1:pmos-4@1_b.  This node is used by m:i2c_top_@0:i2c_subm@0:sr_sipo_@0:ffd_clrn@2:nand@1:pmos-4@1.
WARNING: Less than two connections to node i2c_top_@0:i2c_subm@0:sr_sipo_@0:ffd_clrn@2:or_notan@0:nor@0:pmos-4@2_b.  This node is used by m:i2c_top_@0:i2c_subm@0:sr_sipo_@0:ffd_clrn@2:or_notan@0:nor@0:pmos-4@2.
WARNING: Less than two connections to node i2c_top_@0:i2c_subm@0:sr_sipo_@0:ffd_clrn@2:or_notan@1:nor@0:pmos-4@2_b.  This node is used by m:i2c_top_@0:i2c_subm@0:sr_sipo_@0:ffd_clrn@2:or_notan@1:nor@0:pmos-4@2.
WARNING: Less than two connections to node i2c_top_@0:i2c_subm@0:sr_sipo_@0:ffd_clrn@3:clk_noso@0:nor@0:pmos-4@2_b.  This node is used by m:i2c_top_@0:i2c_subm@0:sr_sipo_@0:ffd_clrn@3:clk_noso@0:nor@0:pmos-4@2.
WARNING: Less than two connections to node i2c_top_@0:i2c_subm@0:sr_sipo_@0:ffd_clrn@3:clk_noso@0:nor@1:pmos-4@2_b.  This node is used by m:i2c_top_@0:i2c_subm@0:sr_sipo_@0:ffd_clrn@3:clk_noso@0:nor@1:pmos-4@2.
WARNING: Less than two connections to node i2c_top_@0:i2c_subm@0:sr_sipo_@0:ffd_clrn@3:nand@0:pmos-4@1_b.  This node is used by m:i2c_top_@0:i2c_subm@0:sr_sipo_@0:ffd_clrn@3:nand@0:pmos-4@1.
WARNING: Less than two connections to node i2c_top_@0:i2c_subm@0:sr_sipo_@0:ffd_clrn@3:nand@1:pmos-4@1_b.  This node is used by m:i2c_top_@0:i2c_subm@0:sr_sipo_@0:ffd_clrn@3:nand@1:pmos-4@1.
WARNING: Less than two connections to node i2c_top_@0:i2c_subm@0:sr_sipo_@0:ffd_clrn@3:or_notan@0:nor@0:pmos-4@2_b.  This node is used by m:i2c_top_@0:i2c_subm@0:sr_sipo_@0:ffd_clrn@3:or_notan@0:nor@0:pmos-4@2.
WARNING: Less than two connections to node i2c_top_@0:i2c_subm@0:sr_sipo_@0:ffd_clrn@3:or_notan@1:nor@0:pmos-4@2_b.  This node is used by m:i2c_top_@0:i2c_subm@0:sr_sipo_@0:ffd_clrn@3:or_notan@1:nor@0:pmos-4@2.
WARNING: Less than two connections to node i2c_top_@0:i2c_subm@0:sr_sipo_@0:ffd_clrn@8:clk_noso@0:nor@0:pmos-4@2_b.  This node is used by m:i2c_top_@0:i2c_subm@0:sr_sipo_@0:ffd_clrn@8:clk_noso@0:nor@0:pmos-4@2.
WARNING: Less than two connections to node i2c_top_@0:i2c_subm@0:sr_sipo_@0:ffd_clrn@8:clk_noso@0:nor@1:pmos-4@2_b.  This node is used by m:i2c_top_@0:i2c_subm@0:sr_sipo_@0:ffd_clrn@8:clk_noso@0:nor@1:pmos-4@2.
WARNING: Less than two connections to node i2c_top_@0:i2c_subm@0:sr_sipo_@0:ffd_clrn@8:nand@0:pmos-4@1_b.  This node is used by m:i2c_top_@0:i2c_subm@0:sr_sipo_@0:ffd_clrn@8:nand@0:pmos-4@1.
WARNING: Less than two connections to node i2c_top_@0:i2c_subm@0:sr_sipo_@0:ffd_clrn@8:nand@1:pmos-4@1_b.  This node is used by m:i2c_top_@0:i2c_subm@0:sr_sipo_@0:ffd_clrn@8:nand@1:pmos-4@1.
WARNING: Less than two connections to node i2c_top_@0:i2c_subm@0:sr_sipo_@0:ffd_clrn@8:or_notan@0:nor@0:pmos-4@2_b.  This node is used by m:i2c_top_@0:i2c_subm@0:sr_sipo_@0:ffd_clrn@8:or_notan@0:nor@0:pmos-4@2.
WARNING: Less than two connections to node i2c_top_@0:i2c_subm@0:sr_sipo_@0:ffd_clrn@8:or_notan@1:nor@0:pmos-4@2_b.  This node is used by m:i2c_top_@0:i2c_subm@0:sr_sipo_@0:ffd_clrn@8:or_notan@1:nor@0:pmos-4@2.
WARNING: Less than two connections to node i2c_top_@0:i2c_subm@0:sr_sipo_@0:ffd_clrn@9:clk_noso@0:nor@0:pmos-4@2_b.  This node is used by m:i2c_top_@0:i2c_subm@0:sr_sipo_@0:ffd_clrn@9:clk_noso@0:nor@0:pmos-4@2.
WARNING: Less than two connections to node i2c_top_@0:i2c_subm@0:sr_sipo_@0:ffd_clrn@9:clk_noso@0:nor@1:pmos-4@2_b.  This node is used by m:i2c_top_@0:i2c_subm@0:sr_sipo_@0:ffd_clrn@9:clk_noso@0:nor@1:pmos-4@2.
WARNING: Less than two connections to node i2c_top_@0:i2c_subm@0:sr_sipo_@0:ffd_clrn@9:nand@0:pmos-4@1_b.  This node is used by m:i2c_top_@0:i2c_subm@0:sr_sipo_@0:ffd_clrn@9:nand@0:pmos-4@1.
WARNING: Less than two connections to node i2c_top_@0:i2c_subm@0:sr_sipo_@0:ffd_clrn@9:nand@1:pmos-4@1_b.  This node is used by m:i2c_top_@0:i2c_subm@0:sr_sipo_@0:ffd_clrn@9:nand@1:pmos-4@1.
WARNING: Less than two connections to node i2c_top_@0:i2c_subm@0:sr_sipo_@0:ffd_clrn@9:or_notan@0:nor@0:pmos-4@2_b.  This node is used by m:i2c_top_@0:i2c_subm@0:sr_sipo_@0:ffd_clrn@9:or_notan@0:nor@0:pmos-4@2.
WARNING: Less than two connections to node i2c_top_@0:i2c_subm@0:sr_sipo_@0:ffd_clrn@9:or_notan@1:nor@0:pmos-4@2_b.  This node is used by m:i2c_top_@0:i2c_subm@0:sr_sipo_@0:ffd_clrn@9:or_notan@1:nor@0:pmos-4@2.
WARNING: Less than two connections to node i2c_top_@0:i2c_subm@0:sr_sipo_@0:ffd_clrn@10:clk_noso@0:nor@0:pmos-4@2_b.  This node is used by m:i2c_top_@0:i2c_subm@0:sr_sipo_@0:ffd_clrn@10:clk_noso@0:nor@0:pmos-4@2.
WARNING: Less than two connections to node i2c_top_@0:i2c_subm@0:sr_sipo_@0:ffd_clrn@10:clk_noso@0:nor@1:pmos-4@2_b.  This node is used by m:i2c_top_@0:i2c_subm@0:sr_sipo_@0:ffd_clrn@10:clk_noso@0:nor@1:pmos-4@2.
WARNING: Less than two connections to node i2c_top_@0:i2c_subm@0:sr_sipo_@0:ffd_clrn@10:nand@0:pmos-4@1_b.  This node is used by m:i2c_top_@0:i2c_subm@0:sr_sipo_@0:ffd_clrn@10:nand@0:pmos-4@1.
WARNING: Less than two connections to node i2c_top_@0:i2c_subm@0:sr_sipo_@0:ffd_clrn@10:nand@1:pmos-4@1_b.  This node is used by m:i2c_top_@0:i2c_subm@0:sr_sipo_@0:ffd_clrn@10:nand@1:pmos-4@1.
WARNING: Less than two connections to node i2c_top_@0:i2c_subm@0:sr_sipo_@0:ffd_clrn@10:or_notan@0:nor@0:pmos-4@2_b.  This node is used by m:i2c_top_@0:i2c_subm@0:sr_sipo_@0:ffd_clrn@10:or_notan@0:nor@0:pmos-4@2.
WARNING: Less than two connections to node i2c_top_@0:i2c_subm@0:sr_sipo_@0:ffd_clrn@10:or_notan@1:nor@0:pmos-4@2_b.  This node is used by m:i2c_top_@0:i2c_subm@0:sr_sipo_@0:ffd_clrn@10:or_notan@1:nor@0:pmos-4@2.
WARNING: Less than two connections to node i2c_top_@0:i2c_subm@0:sr_sipo_@0:ffd_clrn@11:clk_noso@0:nor@0:pmos-4@2_b.  This node is used by m:i2c_top_@0:i2c_subm@0:sr_sipo_@0:ffd_clrn@11:clk_noso@0:nor@0:pmos-4@2.
WARNING: Less than two connections to node i2c_top_@0:i2c_subm@0:sr_sipo_@0:ffd_clrn@11:clk_noso@0:nor@1:pmos-4@2_b.  This node is used by m:i2c_top_@0:i2c_subm@0:sr_sipo_@0:ffd_clrn@11:clk_noso@0:nor@1:pmos-4@2.
WARNING: Less than two connections to node i2c_top_@0:i2c_subm@0:sr_sipo_@0:ffd_clrn@11:nand@0:pmos-4@1_b.  This node is used by m:i2c_top_@0:i2c_subm@0:sr_sipo_@0:ffd_clrn@11:nand@0:pmos-4@1.
WARNING: Less than two connections to node i2c_top_@0:i2c_subm@0:sr_sipo_@0:ffd_clrn@11:nand@1:pmos-4@1_b.  This node is used by m:i2c_top_@0:i2c_subm@0:sr_sipo_@0:ffd_clrn@11:nand@1:pmos-4@1.
WARNING: Less than two connections to node i2c_top_@0:i2c_subm@0:sr_sipo_@0:ffd_clrn@11:or_notan@0:nor@0:pmos-4@2_b.  This node is used by m:i2c_top_@0:i2c_subm@0:sr_sipo_@0:ffd_clrn@11:or_notan@0:nor@0:pmos-4@2.
WARNING: Less than two connections to node i2c_top_@0:i2c_subm@0:sr_sipo_@0:ffd_clrn@11:or_notan@1:nor@0:pmos-4@2_b.  This node is used by m:i2c_top_@0:i2c_subm@0:sr_sipo_@0:ffd_clrn@11:or_notan@1:nor@0:pmos-4@2.
WARNING: Less than two connections to node i2c_top_@0:i2c_subm@0:add_dete@0:_14b_equa@0:_6b_and@0:nand@0:pmos-4@1_b.  This node is used by m:i2c_top_@0:i2c_subm@0:add_dete@0:_14b_equa@0:_6b_and@0:nand@0:pmos-4@1.
WARNING: Less than two connections to node i2c_top_@0:i2c_subm@0:add_dete@0:_14b_equa@0:_6b_and@0:nand@1:pmos-4@1_b.  This node is used by m:i2c_top_@0:i2c_subm@0:add_dete@0:_14b_equa@0:_6b_and@0:nand@1:pmos-4@1.
WARNING: Less than two connections to node i2c_top_@0:i2c_subm@0:add_dete@0:_14b_equa@0:_6b_and@0:nand@2:pmos-4@1_b.  This node is used by m:i2c_top_@0:i2c_subm@0:add_dete@0:_14b_equa@0:_6b_and@0:nand@2:pmos-4@1.
WARNING: Less than two connections to node i2c_top_@0:i2c_subm@0:add_dete@0:_14b_equa@0:_6b_and@0:nand@3:pmos-4@1_b.  This node is used by m:i2c_top_@0:i2c_subm@0:add_dete@0:_14b_equa@0:_6b_and@0:nand@3:pmos-4@1.
WARNING: Less than two connections to node i2c_top_@0:i2c_subm@0:add_dete@0:_14b_equa@0:_6b_and@0:nor@0:pmos-4@2_b.  This node is used by m:i2c_top_@0:i2c_subm@0:add_dete@0:_14b_equa@0:_6b_and@0:nor@0:pmos-4@2.
WARNING: Less than two connections to node i2c_top_@0:i2c_subm@0:add_dete@0:_14b_equa@0:and@0:nand@0:pmos-4@1_b.  This node is used by m:i2c_top_@0:i2c_subm@0:add_dete@0:_14b_equa@0:and@0:nand@0:pmos-4@1.
WARNING: Less than two connections to node i2c_top_@0:i2c_subm@0:add_dete@0:_14b_equa@0:nor@0:pmos-4@2_b.  This node is used by m:i2c_top_@0:i2c_subm@0:add_dete@0:_14b_equa@0:nor@0:pmos-4@2.
WARNING: Less than two connections to node i2c_top_@0:i2c_subm@0:add_dete@0:_14b_equa@0:nor@1:pmos-4@2_b.  This node is used by m:i2c_top_@0:i2c_subm@0:add_dete@0:_14b_equa@0:nor@1:pmos-4@2.
WARNING: Less than two connections to node i2c_top_@0:i2c_subm@0:add_dete@0:_14b_equa@0:nor@2:pmos-4@2_b.  This node is used by m:i2c_top_@0:i2c_subm@0:add_dete@0:_14b_equa@0:nor@2:pmos-4@2.
WARNING: Less than two connections to node i2c_top_@0:i2c_subm@0:add_dete@0:_14b_equa@0:xor@0:nand@0:pmos-4@1_b.  This node is used by m:i2c_top_@0:i2c_subm@0:add_dete@0:_14b_equa@0:xor@0:nand@0:pmos-4@1.
WARNING: Less than two connections to node i2c_top_@0:i2c_subm@0:add_dete@0:_14b_equa@0:xor@0:nand@1:pmos-4@1_b.  This node is used by m:i2c_top_@0:i2c_subm@0:add_dete@0:_14b_equa@0:xor@0:nand@1:pmos-4@1.
WARNING: Less than two connections to node i2c_top_@0:i2c_subm@0:add_dete@0:_14b_equa@0:xor@0:nand@2:pmos-4@1_b.  This node is used by m:i2c_top_@0:i2c_subm@0:add_dete@0:_14b_equa@0:xor@0:nand@2:pmos-4@1.
WARNING: Less than two connections to node i2c_top_@0:i2c_subm@0:add_dete@0:_14b_equa@0:xor@0:nand@3:pmos-4@1_b.  This node is used by m:i2c_top_@0:i2c_subm@0:add_dete@0:_14b_equa@0:xor@0:nand@3:pmos-4@1.
WARNING: Less than two connections to node i2c_top_@0:i2c_subm@0:add_dete@0:_14b_equa@0:xor@1:nand@0:pmos-4@1_b.  This node is used by m:i2c_top_@0:i2c_subm@0:add_dete@0:_14b_equa@0:xor@1:nand@0:pmos-4@1.
WARNING: Less than two connections to node i2c_top_@0:i2c_subm@0:add_dete@0:_14b_equa@0:xor@1:nand@1:pmos-4@1_b.  This node is used by m:i2c_top_@0:i2c_subm@0:add_dete@0:_14b_equa@0:xor@1:nand@1:pmos-4@1.
WARNING: Less than two connections to node i2c_top_@0:i2c_subm@0:add_dete@0:_14b_equa@0:xor@1:nand@2:pmos-4@1_b.  This node is used by m:i2c_top_@0:i2c_subm@0:add_dete@0:_14b_equa@0:xor@1:nand@2:pmos-4@1.
WARNING: Less than two connections to node i2c_top_@0:i2c_subm@0:add_dete@0:_14b_equa@0:xor@1:nand@3:pmos-4@1_b.  This node is used by m:i2c_top_@0:i2c_subm@0:add_dete@0:_14b_equa@0:xor@1:nand@3:pmos-4@1.
WARNING: Less than two connections to node i2c_top_@0:i2c_subm@0:add_dete@0:_14b_equa@0:xor@2:nand@0:pmos-4@1_b.  This node is used by m:i2c_top_@0:i2c_subm@0:add_dete@0:_14b_equa@0:xor@2:nand@0:pmos-4@1.
WARNING: Less than two connections to node i2c_top_@0:i2c_subm@0:add_dete@0:_14b_equa@0:xor@2:nand@1:pmos-4@1_b.  This node is used by m:i2c_top_@0:i2c_subm@0:add_dete@0:_14b_equa@0:xor@2:nand@1:pmos-4@1.
WARNING: Less than two connections to node i2c_top_@0:i2c_subm@0:add_dete@0:_14b_equa@0:xor@2:nand@2:pmos-4@1_b.  This node is used by m:i2c_top_@0:i2c_subm@0:add_dete@0:_14b_equa@0:xor@2:nand@2:pmos-4@1.
WARNING: Less than two connections to node i2c_top_@0:i2c_subm@0:add_dete@0:_14b_equa@0:xor@2:nand@3:pmos-4@1_b.  This node is used by m:i2c_top_@0:i2c_subm@0:add_dete@0:_14b_equa@0:xor@2:nand@3:pmos-4@1.
WARNING: Less than two connections to node i2c_top_@0:i2c_subm@0:add_dete@0:_14b_equa@0:xor@3:nand@0:pmos-4@1_b.  This node is used by m:i2c_top_@0:i2c_subm@0:add_dete@0:_14b_equa@0:xor@3:nand@0:pmos-4@1.
WARNING: Less than two connections to node i2c_top_@0:i2c_subm@0:add_dete@0:_14b_equa@0:xor@3:nand@1:pmos-4@1_b.  This node is used by m:i2c_top_@0:i2c_subm@0:add_dete@0:_14b_equa@0:xor@3:nand@1:pmos-4@1.
WARNING: Less than two connections to node i2c_top_@0:i2c_subm@0:add_dete@0:_14b_equa@0:xor@3:nand@2:pmos-4@1_b.  This node is used by m:i2c_top_@0:i2c_subm@0:add_dete@0:_14b_equa@0:xor@3:nand@2:pmos-4@1.
WARNING: Less than two connections to node i2c_top_@0:i2c_subm@0:add_dete@0:_14b_equa@0:xor@3:nand@3:pmos-4@1_b.  This node is used by m:i2c_top_@0:i2c_subm@0:add_dete@0:_14b_equa@0:xor@3:nand@3:pmos-4@1.
WARNING: Less than two connections to node i2c_top_@0:i2c_subm@0:add_dete@0:_14b_equa@0:xor@4:nand@0:pmos-4@1_b.  This node is used by m:i2c_top_@0:i2c_subm@0:add_dete@0:_14b_equa@0:xor@4:nand@0:pmos-4@1.
WARNING: Less than two connections to node i2c_top_@0:i2c_subm@0:add_dete@0:_14b_equa@0:xor@4:nand@1:pmos-4@1_b.  This node is used by m:i2c_top_@0:i2c_subm@0:add_dete@0:_14b_equa@0:xor@4:nand@1:pmos-4@1.
WARNING: Less than two connections to node i2c_top_@0:i2c_subm@0:add_dete@0:_14b_equa@0:xor@4:nand@2:pmos-4@1_b.  This node is used by m:i2c_top_@0:i2c_subm@0:add_dete@0:_14b_equa@0:xor@4:nand@2:pmos-4@1.
WARNING: Less than two connections to node i2c_top_@0:i2c_subm@0:add_dete@0:_14b_equa@0:xor@4:nand@3:pmos-4@1_b.  This node is used by m:i2c_top_@0:i2c_subm@0:add_dete@0:_14b_equa@0:xor@4:nand@3:pmos-4@1.
WARNING: Less than two connections to node i2c_top_@0:i2c_subm@0:add_dete@0:_14b_equa@0:xor@5:nand@0:pmos-4@1_b.  This node is used by m:i2c_top_@0:i2c_subm@0:add_dete@0:_14b_equa@0:xor@5:nand@0:pmos-4@1.
WARNING: Less than two connections to node i2c_top_@0:i2c_subm@0:add_dete@0:_14b_equa@0:xor@5:nand@1:pmos-4@1_b.  This node is used by m:i2c_top_@0:i2c_subm@0:add_dete@0:_14b_equa@0:xor@5:nand@1:pmos-4@1.
WARNING: Less than two connections to node i2c_top_@0:i2c_subm@0:add_dete@0:_14b_equa@0:xor@5:nand@2:pmos-4@1_b.  This node is used by m:i2c_top_@0:i2c_subm@0:add_dete@0:_14b_equa@0:xor@5:nand@2:pmos-4@1.
WARNING: Less than two connections to node i2c_top_@0:i2c_subm@0:add_dete@0:_14b_equa@0:xor@5:nand@3:pmos-4@1_b.  This node is used by m:i2c_top_@0:i2c_subm@0:add_dete@0:_14b_equa@0:xor@5:nand@3:pmos-4@1.
WARNING: Less than two connections to node i2c_top_@0:i2c_subm@0:add_dete@0:_14b_equa@0:xor@6:nand@0:pmos-4@1_b.  This node is used by m:i2c_top_@0:i2c_subm@0:add_dete@0:_14b_equa@0:xor@6:nand@0:pmos-4@1.
WARNING: Less than two connections to node i2c_top_@0:i2c_subm@0:add_dete@0:_14b_equa@0:xor@6:nand@1:pmos-4@1_b.  This node is used by m:i2c_top_@0:i2c_subm@0:add_dete@0:_14b_equa@0:xor@6:nand@1:pmos-4@1.
WARNING: Less than two connections to node i2c_top_@0:i2c_subm@0:add_dete@0:_14b_equa@0:xor@6:nand@2:pmos-4@1_b.  This node is used by m:i2c_top_@0:i2c_subm@0:add_dete@0:_14b_equa@0:xor@6:nand@2:pmos-4@1.
WARNING: Less than two connections to node i2c_top_@0:i2c_subm@0:add_dete@0:_14b_equa@0:xor@6:nand@3:pmos-4@1_b.  This node is used by m:i2c_top_@0:i2c_subm@0:add_dete@0:_14b_equa@0:xor@6:nand@3:pmos-4@1.
WARNING: Less than two connections to node i2c_top_@0:i2c_subm@0:add_dete@0:and@0:nand@0:pmos-4@1_b.  This node is used by m:i2c_top_@0:i2c_subm@0:add_dete@0:and@0:nand@0:pmos-4@1.
WARNING: Less than two connections to node i2c_top_@0:i2c_subm@0:add_dete@0:ffd_clrn@0:clk_noso@0:nor@0:pmos-4@2_b.  This node is used by m:i2c_top_@0:i2c_subm@0:add_dete@0:ffd_clrn@0:clk_noso@0:nor@0:pmos-4@2.
WARNING: Less than two connections to node i2c_top_@0:i2c_subm@0:add_dete@0:ffd_clrn@0:clk_noso@0:nor@1:pmos-4@2_b.  This node is used by m:i2c_top_@0:i2c_subm@0:add_dete@0:ffd_clrn@0:clk_noso@0:nor@1:pmos-4@2.
WARNING: Less than two connections to node i2c_top_@0:i2c_subm@0:add_dete@0:ffd_clrn@0:nand@0:pmos-4@1_b.  This node is used by m:i2c_top_@0:i2c_subm@0:add_dete@0:ffd_clrn@0:nand@0:pmos-4@1.
WARNING: Less than two connections to node i2c_top_@0:i2c_subm@0:add_dete@0:ffd_clrn@0:nand@1:pmos-4@1_b.  This node is used by m:i2c_top_@0:i2c_subm@0:add_dete@0:ffd_clrn@0:nand@1:pmos-4@1.
WARNING: Less than two connections to node i2c_top_@0:i2c_subm@0:add_dete@0:ffd_clrn@0:or_notan@0:nor@0:pmos-4@2_b.  This node is used by m:i2c_top_@0:i2c_subm@0:add_dete@0:ffd_clrn@0:or_notan@0:nor@0:pmos-4@2.
WARNING: Less than two connections to node i2c_top_@0:i2c_subm@0:add_dete@0:ffd_clrn@0:or_notan@1:nor@0:pmos-4@2_b.  This node is used by m:i2c_top_@0:i2c_subm@0:add_dete@0:ffd_clrn@0:or_notan@1:nor@0:pmos-4@2.
WARNING: Less than two connections to node i2c_top_@0:i2c_subm@0:add_dete@0:ffd_clrn@2:clk_noso@0:nor@0:pmos-4@2_b.  This node is used by m:i2c_top_@0:i2c_subm@0:add_dete@0:ffd_clrn@2:clk_noso@0:nor@0:pmos-4@2.
WARNING: Less than two connections to node i2c_top_@0:i2c_subm@0:add_dete@0:ffd_clrn@2:clk_noso@0:nor@1:pmos-4@2_b.  This node is used by m:i2c_top_@0:i2c_subm@0:add_dete@0:ffd_clrn@2:clk_noso@0:nor@1:pmos-4@2.
WARNING: Less than two connections to node i2c_top_@0:i2c_subm@0:add_dete@0:ffd_clrn@2:nand@0:pmos-4@1_b.  This node is used by m:i2c_top_@0:i2c_subm@0:add_dete@0:ffd_clrn@2:nand@0:pmos-4@1.
WARNING: Less than two connections to node i2c_top_@0:i2c_subm@0:add_dete@0:ffd_clrn@2:nand@1:pmos-4@1_b.  This node is used by m:i2c_top_@0:i2c_subm@0:add_dete@0:ffd_clrn@2:nand@1:pmos-4@1.
WARNING: Less than two connections to node i2c_top_@0:i2c_subm@0:add_dete@0:ffd_clrn@2:or_notan@0:nor@0:pmos-4@2_b.  This node is used by m:i2c_top_@0:i2c_subm@0:add_dete@0:ffd_clrn@2:or_notan@0:nor@0:pmos-4@2.
WARNING: Less than two connections to node i2c_top_@0:i2c_subm@0:add_dete@0:ffd_clrn@2:or_notan@1:nor@0:pmos-4@2_b.  This node is used by m:i2c_top_@0:i2c_subm@0:add_dete@0:ffd_clrn@2:or_notan@1:nor@0:pmos-4@2.
WARNING: Less than two connections to node i2c_top_@0:i2c_subm@0:add_dete@0:ffd_clrn@3:clk_noso@0:nor@0:pmos-4@2_b.  This node is used by m:i2c_top_@0:i2c_subm@0:add_dete@0:ffd_clrn@3:clk_noso@0:nor@0:pmos-4@2.
WARNING: Less than two connections to node i2c_top_@0:i2c_subm@0:add_dete@0:ffd_clrn@3:clk_noso@0:nor@1:pmos-4@2_b.  This node is used by m:i2c_top_@0:i2c_subm@0:add_dete@0:ffd_clrn@3:clk_noso@0:nor@1:pmos-4@2.
WARNING: Less than two connections to node i2c_top_@0:i2c_subm@0:add_dete@0:ffd_clrn@3:nand@0:pmos-4@1_b.  This node is used by m:i2c_top_@0:i2c_subm@0:add_dete@0:ffd_clrn@3:nand@0:pmos-4@1.
WARNING: Less than two connections to node i2c_top_@0:i2c_subm@0:add_dete@0:ffd_clrn@3:nand@1:pmos-4@1_b.  This node is used by m:i2c_top_@0:i2c_subm@0:add_dete@0:ffd_clrn@3:nand@1:pmos-4@1.
WARNING: Less than two connections to node i2c_top_@0:i2c_subm@0:add_dete@0:ffd_clrn@3:or_notan@0:nor@0:pmos-4@2_b.  This node is used by m:i2c_top_@0:i2c_subm@0:add_dete@0:ffd_clrn@3:or_notan@0:nor@0:pmos-4@2.
WARNING: Less than two connections to node i2c_top_@0:i2c_subm@0:add_dete@0:ffd_clrn@3:or_notan@1:nor@0:pmos-4@2_b.  This node is used by m:i2c_top_@0:i2c_subm@0:add_dete@0:ffd_clrn@3:or_notan@1:nor@0:pmos-4@2.
WARNING: Less than two connections to node i2c_top_@0:i2c_subm@0:add_dete@0:xor@0:nand@0:pmos-4@1_b.  This node is used by m:i2c_top_@0:i2c_subm@0:add_dete@0:xor@0:nand@0:pmos-4@1.
WARNING: Less than two connections to node i2c_top_@0:i2c_subm@0:add_dete@0:xor@0:nand@1:pmos-4@1_b.  This node is used by m:i2c_top_@0:i2c_subm@0:add_dete@0:xor@0:nand@1:pmos-4@1.
WARNING: Less than two connections to node i2c_top_@0:i2c_subm@0:add_dete@0:xor@0:nand@2:pmos-4@1_b.  This node is used by m:i2c_top_@0:i2c_subm@0:add_dete@0:xor@0:nand@2:pmos-4@1.
WARNING: Less than two connections to node i2c_top_@0:i2c_subm@0:add_dete@0:xor@0:nand@3:pmos-4@1_b.  This node is used by m:i2c_top_@0:i2c_subm@0:add_dete@0:xor@0:nand@3:pmos-4@1.
WARNING: Less than two connections to node i2c_top_@0:i2c_subm@0:buff_8bi@0:ffd_clrn@0:clk_noso@0:nor@0:pmos-4@2_b.  This node is used by m:i2c_top_@0:i2c_subm@0:buff_8bi@0:ffd_clrn@0:clk_noso@0:nor@0:pmos-4@2.
WARNING: Less than two connections to node i2c_top_@0:i2c_subm@0:buff_8bi@0:ffd_clrn@0:clk_noso@0:nor@1:pmos-4@2_b.  This node is used by m:i2c_top_@0:i2c_subm@0:buff_8bi@0:ffd_clrn@0:clk_noso@0:nor@1:pmos-4@2.
WARNING: Less than two connections to node i2c_top_@0:i2c_subm@0:buff_8bi@0:ffd_clrn@0:nand@0:pmos-4@1_b.  This node is used by m:i2c_top_@0:i2c_subm@0:buff_8bi@0:ffd_clrn@0:nand@0:pmos-4@1.
WARNING: Less than two connections to node i2c_top_@0:i2c_subm@0:buff_8bi@0:ffd_clrn@0:nand@1:pmos-4@1_b.  This node is used by m:i2c_top_@0:i2c_subm@0:buff_8bi@0:ffd_clrn@0:nand@1:pmos-4@1.
WARNING: Less than two connections to node i2c_top_@0:i2c_subm@0:buff_8bi@0:ffd_clrn@0:or_notan@0:nor@0:pmos-4@2_b.  This node is used by m:i2c_top_@0:i2c_subm@0:buff_8bi@0:ffd_clrn@0:or_notan@0:nor@0:pmos-4@2.
WARNING: Less than two connections to node i2c_top_@0:i2c_subm@0:buff_8bi@0:ffd_clrn@0:or_notan@1:nor@0:pmos-4@2_b.  This node is used by m:i2c_top_@0:i2c_subm@0:buff_8bi@0:ffd_clrn@0:or_notan@1:nor@0:pmos-4@2.
WARNING: Less than two connections to node i2c_top_@0:i2c_subm@0:buff_8bi@0:ffd_clrn@1:clk_noso@0:nor@0:pmos-4@2_b.  This node is used by m:i2c_top_@0:i2c_subm@0:buff_8bi@0:ffd_clrn@1:clk_noso@0:nor@0:pmos-4@2.
WARNING: Less than two connections to node i2c_top_@0:i2c_subm@0:buff_8bi@0:ffd_clrn@1:clk_noso@0:nor@1:pmos-4@2_b.  This node is used by m:i2c_top_@0:i2c_subm@0:buff_8bi@0:ffd_clrn@1:clk_noso@0:nor@1:pmos-4@2.
WARNING: Less than two connections to node i2c_top_@0:i2c_subm@0:buff_8bi@0:ffd_clrn@1:nand@0:pmos-4@1_b.  This node is used by m:i2c_top_@0:i2c_subm@0:buff_8bi@0:ffd_clrn@1:nand@0:pmos-4@1.
WARNING: Less than two connections to node i2c_top_@0:i2c_subm@0:buff_8bi@0:ffd_clrn@1:nand@1:pmos-4@1_b.  This node is used by m:i2c_top_@0:i2c_subm@0:buff_8bi@0:ffd_clrn@1:nand@1:pmos-4@1.
WARNING: Less than two connections to node i2c_top_@0:i2c_subm@0:buff_8bi@0:ffd_clrn@1:or_notan@0:nor@0:pmos-4@2_b.  This node is used by m:i2c_top_@0:i2c_subm@0:buff_8bi@0:ffd_clrn@1:or_notan@0:nor@0:pmos-4@2.
WARNING: Less than two connections to node i2c_top_@0:i2c_subm@0:buff_8bi@0:ffd_clrn@1:or_notan@1:nor@0:pmos-4@2_b.  This node is used by m:i2c_top_@0:i2c_subm@0:buff_8bi@0:ffd_clrn@1:or_notan@1:nor@0:pmos-4@2.
WARNING: Less than two connections to node i2c_top_@0:i2c_subm@0:buff_8bi@0:ffd_clrn@2:clk_noso@0:nor@0:pmos-4@2_b.  This node is used by m:i2c_top_@0:i2c_subm@0:buff_8bi@0:ffd_clrn@2:clk_noso@0:nor@0:pmos-4@2.
WARNING: Less than two connections to node i2c_top_@0:i2c_subm@0:buff_8bi@0:ffd_clrn@2:clk_noso@0:nor@1:pmos-4@2_b.  This node is used by m:i2c_top_@0:i2c_subm@0:buff_8bi@0:ffd_clrn@2:clk_noso@0:nor@1:pmos-4@2.
WARNING: Less than two connections to node i2c_top_@0:i2c_subm@0:buff_8bi@0:ffd_clrn@2:nand@0:pmos-4@1_b.  This node is used by m:i2c_top_@0:i2c_subm@0:buff_8bi@0:ffd_clrn@2:nand@0:pmos-4@1.
WARNING: Less than two connections to node i2c_top_@0:i2c_subm@0:buff_8bi@0:ffd_clrn@2:nand@1:pmos-4@1_b.  This node is used by m:i2c_top_@0:i2c_subm@0:buff_8bi@0:ffd_clrn@2:nand@1:pmos-4@1.
WARNING: Less than two connections to node i2c_top_@0:i2c_subm@0:buff_8bi@0:ffd_clrn@2:or_notan@0:nor@0:pmos-4@2_b.  This node is used by m:i2c_top_@0:i2c_subm@0:buff_8bi@0:ffd_clrn@2:or_notan@0:nor@0:pmos-4@2.
WARNING: Less than two connections to node i2c_top_@0:i2c_subm@0:buff_8bi@0:ffd_clrn@2:or_notan@1:nor@0:pmos-4@2_b.  This node is used by m:i2c_top_@0:i2c_subm@0:buff_8bi@0:ffd_clrn@2:or_notan@1:nor@0:pmos-4@2.
WARNING: Less than two connections to node i2c_top_@0:i2c_subm@0:buff_8bi@0:ffd_clrn@3:clk_noso@0:nor@0:pmos-4@2_b.  This node is used by m:i2c_top_@0:i2c_subm@0:buff_8bi@0:ffd_clrn@3:clk_noso@0:nor@0:pmos-4@2.
WARNING: Less than two connections to node i2c_top_@0:i2c_subm@0:buff_8bi@0:ffd_clrn@3:clk_noso@0:nor@1:pmos-4@2_b.  This node is used by m:i2c_top_@0:i2c_subm@0:buff_8bi@0:ffd_clrn@3:clk_noso@0:nor@1:pmos-4@2.
WARNING: Less than two connections to node i2c_top_@0:i2c_subm@0:buff_8bi@0:ffd_clrn@3:nand@0:pmos-4@1_b.  This node is used by m:i2c_top_@0:i2c_subm@0:buff_8bi@0:ffd_clrn@3:nand@0:pmos-4@1.
WARNING: Less than two connections to node i2c_top_@0:i2c_subm@0:buff_8bi@0:ffd_clrn@3:nand@1:pmos-4@1_b.  This node is used by m:i2c_top_@0:i2c_subm@0:buff_8bi@0:ffd_clrn@3:nand@1:pmos-4@1.
WARNING: Less than two connections to node i2c_top_@0:i2c_subm@0:buff_8bi@0:ffd_clrn@3:or_notan@0:nor@0:pmos-4@2_b.  This node is used by m:i2c_top_@0:i2c_subm@0:buff_8bi@0:ffd_clrn@3:or_notan@0:nor@0:pmos-4@2.
WARNING: Less than two connections to node i2c_top_@0:i2c_subm@0:buff_8bi@0:ffd_clrn@3:or_notan@1:nor@0:pmos-4@2_b.  This node is used by m:i2c_top_@0:i2c_subm@0:buff_8bi@0:ffd_clrn@3:or_notan@1:nor@0:pmos-4@2.
WARNING: Less than two connections to node i2c_top_@0:i2c_subm@0:buff_8bi@0:ffd_clrn@4:clk_noso@0:nor@0:pmos-4@2_b.  This node is used by m:i2c_top_@0:i2c_subm@0:buff_8bi@0:ffd_clrn@4:clk_noso@0:nor@0:pmos-4@2.
WARNING: Less than two connections to node i2c_top_@0:i2c_subm@0:buff_8bi@0:ffd_clrn@4:clk_noso@0:nor@1:pmos-4@2_b.  This node is used by m:i2c_top_@0:i2c_subm@0:buff_8bi@0:ffd_clrn@4:clk_noso@0:nor@1:pmos-4@2.
[...]
WARNING: Less than two connections to node i2c_top_@0:i2c_subm@0:write_mo@0:sr_piso@0:ffd_clrn@7:nand@0:pmos-4@1_b.  This node is used by m:i2c_top_@0:i2c_subm@0:write_mo@0:sr_piso@0:ffd_clrn@7:nand@0:pmos-4@1.
WARNING: Less than two connections to node i2c_top_@0:i2c_subm@0:write_mo@0:sr_piso@0:ffd_clrn@7:nand@1:pmos-4@1_b.  This node is used by m:i2c_top_@0:i2c_subm@0:write_mo@0:sr_piso@0:ffd_clrn@7:nand@1:pmos-4@1.
WARNING: Less than two connections to node i2c_top_@0:i2c_subm@0:write_mo@0:sr_piso@0:ffd_clrn@7:or_notan@0:nor@0:pmos-4@2_b.  This node is used by m:i2c_top_@0:i2c_subm@0:write_mo@0:sr_piso@0:ffd_clrn@7:or_notan@0:nor@0:pmos-4@2.
WARNING: Less than two connections to node i2c_top_@0:i2c_subm@0:write_mo@0:sr_piso@0:ffd_clrn@7:or_notan@1:nor@0:pmos-4@2_b.  This node is used by m:i2c_top_@0:i2c_subm@0:write_mo@0:sr_piso@0:ffd_clrn@7:or_notan@1:nor@0:pmos-4@2.
WARNING: Less than two connections to node i2c_top_@0:i2c_subm@0:write_mo@0:sr_piso@0:ffd_clrn@8:clk_noso@0:nor@0:pmos-4@2_b.  This node is used by m:i2c_top_@0:i2c_subm@0:write_mo@0:sr_piso@0:ffd_clrn@8:clk_noso@0:nor@0:pmos-4@2.
WARNING: Less than two connections to node i2c_top_@0:i2c_subm@0:write_mo@0:sr_piso@0:ffd_clrn@8:clk_noso@0:nor@1:pmos-4@2_b.  This node is used by m:i2c_top_@0:i2c_subm@0:write_mo@0:sr_piso@0:ffd_clrn@8:clk_noso@0:nor@1:pmos-4@2.
WARNING: Less than two connections to node i2c_top_@0:i2c_subm@0:write_mo@0:sr_piso@0:ffd_clrn@8:nand@0:pmos-4@1_b.  This node is used by m:i2c_top_@0:i2c_subm@0:write_mo@0:sr_piso@0:ffd_clrn@8:nand@0:pmos-4@1.
WARNING: Less than two connections to node i2c_top_@0:i2c_subm@0:write_mo@0:sr_piso@0:ffd_clrn@8:nand@1:pmos-4@1_b.  This node is used by m:i2c_top_@0:i2c_subm@0:write_mo@0:sr_piso@0:ffd_clrn@8:nand@1:pmos-4@1.
WARNING: Less than two connections to node i2c_top_@0:i2c_subm@0:write_mo@0:sr_piso@0:ffd_clrn@8:or_notan@0:nor@0:pmos-4@2_b.  This node is used by m:i2c_top_@0:i2c_subm@0:write_mo@0:sr_piso@0:ffd_clrn@8:or_notan@0:nor@0:pmos-4@2.
WARNING: Less than two connections to node i2c_top_@0:i2c_subm@0:write_mo@0:sr_piso@0:ffd_clrn@8:or_notan@1:nor@0:pmos-4@2_b.  This node is used by m:i2c_top_@0:i2c_subm@0:write_mo@0:sr_piso@0:ffd_clrn@8:or_notan@1:nor@0:pmos-4@2.
WARNING: Less than two connections to node i2c_top_@0:i2c_subm@0:write_mo@0:sr_piso@0:ffd_clrn@9:clk_noso@0:nor@0:pmos-4@2_b.  This node is used by m:i2c_top_@0:i2c_subm@0:write_mo@0:sr_piso@0:ffd_clrn@9:clk_noso@0:nor@0:pmos-4@2.
WARNING: Less than two connections to node i2c_top_@0:i2c_subm@0:write_mo@0:sr_piso@0:ffd_clrn@9:clk_noso@0:nor@1:pmos-4@2_b.  This node is used by m:i2c_top_@0:i2c_subm@0:write_mo@0:sr_piso@0:ffd_clrn@9:clk_noso@0:nor@1:pmos-4@2.
WARNING: Less than two connections to node i2c_top_@0:i2c_subm@0:write_mo@0:sr_piso@0:ffd_clrn@9:nand@0:pmos-4@1_b.  This node is used by m:i2c_top_@0:i2c_subm@0:write_mo@0:sr_piso@0:ffd_clrn@9:nand@0:pmos-4@1.
WARNING: Less than two connections to node i2c_top_@0:i2c_subm@0:write_mo@0:sr_piso@0:ffd_clrn@9:nand@1:pmos-4@1_b.  This node is used by m:i2c_top_@0:i2c_subm@0:write_mo@0:sr_piso@0:ffd_clrn@9:nand@1:pmos-4@1.
WARNING: Less than two connections to node i2c_top_@0:i2c_subm@0:write_mo@0:sr_piso@0:ffd_clrn@9:or_notan@0:nor@0:pmos-4@2_b.  This node is used by m:i2c_top_@0:i2c_subm@0:write_mo@0:sr_piso@0:ffd_clrn@9:or_notan@0:nor@0:pmos-4@2.
WARNING: Less than two connections to node i2c_top_@0:i2c_subm@0:write_mo@0:sr_piso@0:ffd_clrn@9:or_notan@1:nor@0:pmos-4@2_b.  This node is used by m:i2c_top_@0:i2c_subm@0:write_mo@0:sr_piso@0:ffd_clrn@9:or_notan@1:nor@0:pmos-4@2.
WARNING: Less than two connections to node i2c_top_@0:i2c_subm@0:write_mo@0:sr_piso@0:ffd_clrn@10:clk_noso@0:nor@0:pmos-4@2_b.  This node is used by m:i2c_top_@0:i2c_subm@0:write_mo@0:sr_piso@0:ffd_clrn@10:clk_noso@0:nor@0:pmos-4@2.
WARNING: Less than two connections to node i2c_top_@0:i2c_subm@0:write_mo@0:sr_piso@0:ffd_clrn@10:clk_noso@0:nor@1:pmos-4@2_b.  This node is used by m:i2c_top_@0:i2c_subm@0:write_mo@0:sr_piso@0:ffd_clrn@10:clk_noso@0:nor@1:pmos-4@2.
WARNING: Less than two connections to node i2c_top_@0:i2c_subm@0:write_mo@0:sr_piso@0:ffd_clrn@10:nand@0:pmos-4@1_b.  This node is used by m:i2c_top_@0:i2c_subm@0:write_mo@0:sr_piso@0:ffd_clrn@10:nand@0:pmos-4@1.
WARNING: Less than two connections to node i2c_top_@0:i2c_subm@0:write_mo@0:sr_piso@0:ffd_clrn@10:nand@1:pmos-4@1_b.  This node is used by m:i2c_top_@0:i2c_subm@0:write_mo@0:sr_piso@0:ffd_clrn@10:nand@1:pmos-4@1.
WARNING: Less than two connections to node i2c_top_@0:i2c_subm@0:write_mo@0:sr_piso@0:ffd_clrn@10:or_notan@0:nor@0:pmos-4@2_b.  This node is used by m:i2c_top_@0:i2c_subm@0:write_mo@0:sr_piso@0:ffd_clrn@10:or_notan@0:nor@0:pmos-4@2.
WARNING: Less than two connections to node i2c_top_@0:i2c_subm@0:write_mo@0:sr_piso@0:ffd_clrn@10:or_notan@1:nor@0:pmos-4@2_b.  This node is used by m:i2c_top_@0:i2c_subm@0:write_mo@0:sr_piso@0:ffd_clrn@10:or_notan@1:nor@0:pmos-4@2.
WARNING: Less than two connections to node i2c_top_@0:i2c_subm@0:write_mo@0:sr_piso@0:ffd_clrn@11:clk_noso@0:nor@0:pmos-4@2_b.  This node is used by m:i2c_top_@0:i2c_subm@0:write_mo@0:sr_piso@0:ffd_clrn@11:clk_noso@0:nor@0:pmos-4@2.
WARNING: Less than two connections to node i2c_top_@0:i2c_subm@0:write_mo@0:sr_piso@0:ffd_clrn@11:clk_noso@0:nor@1:pmos-4@2_b.  This node is used by m:i2c_top_@0:i2c_subm@0:write_mo@0:sr_piso@0:ffd_clrn@11:clk_noso@0:nor@1:pmos-4@2.
WARNING: Less than two connections to node i2c_top_@0:i2c_subm@0:write_mo@0:sr_piso@0:ffd_clrn@11:nand@0:pmos-4@1_b.  This node is used by m:i2c_top_@0:i2c_subm@0:write_mo@0:sr_piso@0:ffd_clrn@11:nand@0:pmos-4@1.
WARNING: Less than two connections to node i2c_top_@0:i2c_subm@0:write_mo@0:sr_piso@0:ffd_clrn@11:nand@1:pmos-4@1_b.  This node is used by m:i2c_top_@0:i2c_subm@0:write_mo@0:sr_piso@0:ffd_clrn@11:nand@1:pmos-4@1.
WARNING: Less than two connections to node i2c_top_@0:i2c_subm@0:write_mo@0:sr_piso@0:ffd_clrn@11:or_notan@0:nor@0:pmos-4@2_b.  This node is used by m:i2c_top_@0:i2c_subm@0:write_mo@0:sr_piso@0:ffd_clrn@11:or_notan@0:nor@0:pmos-4@2.
WARNING: Less than two connections to node i2c_top_@0:i2c_subm@0:write_mo@0:sr_piso@0:ffd_clrn@11:or_notan@1:nor@0:pmos-4@2_b.  This node is used by m:i2c_top_@0:i2c_subm@0:write_mo@0:sr_piso@0:ffd_clrn@11:or_notan@1:nor@0:pmos-4@2.
WARNING: Less than two connections to node i2c_top_@0:i2c_subm@0:write_mo@0:sr_piso@0:ffd_clrn@12:clk_noso@0:nor@0:pmos-4@2_b.  This node is used by m:i2c_top_@0:i2c_subm@0:write_mo@0:sr_piso@0:ffd_clrn@12:clk_noso@0:nor@0:pmos-4@2.
WARNING: Less than two connections to node i2c_top_@0:i2c_subm@0:write_mo@0:sr_piso@0:ffd_clrn@12:clk_noso@0:nor@1:pmos-4@2_b.  This node is used by m:i2c_top_@0:i2c_subm@0:write_mo@0:sr_piso@0:ffd_clrn@12:clk_noso@0:nor@1:pmos-4@2.
WARNING: Less than two connections to node i2c_top_@0:i2c_subm@0:write_mo@0:sr_piso@0:ffd_clrn@12:nand@0:pmos-4@1_b.  This node is used by m:i2c_top_@0:i2c_subm@0:write_mo@0:sr_piso@0:ffd_clrn@12:nand@0:pmos-4@1.
WARNING: Less than two connections to node i2c_top_@0:i2c_subm@0:write_mo@0:sr_piso@0:ffd_clrn@12:nand@1:pmos-4@1_b.  This node is used by m:i2c_top_@0:i2c_subm@0:write_mo@0:sr_piso@0:ffd_clrn@12:nand@1:pmos-4@1.
WARNING: Less than two connections to node i2c_top_@0:i2c_subm@0:write_mo@0:sr_piso@0:ffd_clrn@12:or_notan@0:nor@0:pmos-4@2_b.  This node is used by m:i2c_top_@0:i2c_subm@0:write_mo@0:sr_piso@0:ffd_clrn@12:or_notan@0:nor@0:pmos-4@2.
WARNING: Less than two connections to node i2c_top_@0:i2c_subm@0:write_mo@0:sr_piso@0:ffd_clrn@12:or_notan@1:nor@0:pmos-4@2_b.  This node is used by m:i2c_top_@0:i2c_subm@0:write_mo@0:sr_piso@0:ffd_clrn@12:or_notan@1:nor@0:pmos-4@2.
WARNING: Less than two connections to node i2c_top_@0:i2c_subm@0:write_mo@0:sr_piso@0:ffd_clrn@13:clk_noso@0:nor@0:pmos-4@2_b.  This node is used by m:i2c_top_@0:i2c_subm@0:write_mo@0:sr_piso@0:ffd_clrn@13:clk_noso@0:nor@0:pmos-4@2.
WARNING: Less than two connections to node i2c_top_@0:i2c_subm@0:write_mo@0:sr_piso@0:ffd_clrn@13:clk_noso@0:nor@1:pmos-4@2_b.  This node is used by m:i2c_top_@0:i2c_subm@0:write_mo@0:sr_piso@0:ffd_clrn@13:clk_noso@0:nor@1:pmos-4@2.
WARNING: Less than two connections to node i2c_top_@0:i2c_subm@0:write_mo@0:sr_piso@0:ffd_clrn@13:nand@0:pmos-4@1_b.  This node is used by m:i2c_top_@0:i2c_subm@0:write_mo@0:sr_piso@0:ffd_clrn@13:nand@0:pmos-4@1.
WARNING: Less than two connections to node i2c_top_@0:i2c_subm@0:write_mo@0:sr_piso@0:ffd_clrn@13:nand@1:pmos-4@1_b.  This node is used by m:i2c_top_@0:i2c_subm@0:write_mo@0:sr_piso@0:ffd_clrn@13:nand@1:pmos-4@1.
WARNING: Less than two connections to node i2c_top_@0:i2c_subm@0:write_mo@0:sr_piso@0:ffd_clrn@13:or_notan@0:nor@0:pmos-4@2_b.  This node is used by m:i2c_top_@0:i2c_subm@0:write_mo@0:sr_piso@0:ffd_clrn@13:or_notan@0:nor@0:pmos-4@2.
WARNING: Less than two connections to node i2c_top_@0:i2c_subm@0:write_mo@0:sr_piso@0:ffd_clrn@13:or_notan@1:nor@0:pmos-4@2_b.  This node is used by m:i2c_top_@0:i2c_subm@0:write_mo@0:sr_piso@0:ffd_clrn@13:or_notan@1:nor@0:pmos-4@2.
WARNING: Less than two connections to node i2c_top_@0:i2c_subm@0:write_mo@0:sr_piso@0:ffd_clrn@14:clk_noso@0:nor@0:pmos-4@2_b.  This node is used by m:i2c_top_@0:i2c_subm@0:write_mo@0:sr_piso@0:ffd_clrn@14:clk_noso@0:nor@0:pmos-4@2.
WARNING: Less than two connections to node i2c_top_@0:i2c_subm@0:write_mo@0:sr_piso@0:ffd_clrn@14:clk_noso@0:nor@1:pmos-4@2_b.  This node is used by m:i2c_top_@0:i2c_subm@0:write_mo@0:sr_piso@0:ffd_clrn@14:clk_noso@0:nor@1:pmos-4@2.
WARNING: Less than two connections to node i2c_top_@0:i2c_subm@0:write_mo@0:sr_piso@0:ffd_clrn@14:nand@0:pmos-4@1_b.  This node is used by m:i2c_top_@0:i2c_subm@0:write_mo@0:sr_piso@0:ffd_clrn@14:nand@0:pmos-4@1.
WARNING: Less than two connections to node i2c_top_@0:i2c_subm@0:write_mo@0:sr_piso@0:ffd_clrn@14:nand@1:pmos-4@1_b.  This node is used by m:i2c_top_@0:i2c_subm@0:write_mo@0:sr_piso@0:ffd_clrn@14:nand@1:pmos-4@1.
WARNING: Less than two connections to node i2c_top_@0:i2c_subm@0:write_mo@0:sr_piso@0:ffd_clrn@14:or_notan@0:nor@0:pmos-4@2_b.  This node is used by m:i2c_top_@0:i2c_subm@0:write_mo@0:sr_piso@0:ffd_clrn@14:or_notan@0:nor@0:pmos-4@2.
WARNING: Less than two connections to node i2c_top_@0:i2c_subm@0:write_mo@0:sr_piso@0:ffd_clrn@14:or_notan@1:nor@0:pmos-4@2_b.  This node is used by m:i2c_top_@0:i2c_subm@0:write_mo@0:sr_piso@0:ffd_clrn@14:or_notan@1:nor@0:pmos-4@2.
WARNING: Less than two connections to node i2c_top_@0:i2c_subm@0:write_mo@0:sr_piso@0:ffd_clrn@15:clk_noso@0:nor@0:pmos-4@2_b.  This node is used by m:i2c_top_@0:i2c_subm@0:write_mo@0:sr_piso@0:ffd_clrn@15:clk_noso@0:nor@0:pmos-4@2.
WARNING: Less than two connections to node i2c_top_@0:i2c_subm@0:write_mo@0:sr_piso@0:ffd_clrn@15:clk_noso@0:nor@1:pmos-4@2_b.  This node is used by m:i2c_top_@0:i2c_subm@0:write_mo@0:sr_piso@0:ffd_clrn@15:clk_noso@0:nor@1:pmos-4@2.
WARNING: Less than two connections to node i2c_top_@0:i2c_subm@0:write_mo@0:sr_piso@0:ffd_clrn@15:nand@0:pmos-4@1_b.  This node is used by m:i2c_top_@0:i2c_subm@0:write_mo@0:sr_piso@0:ffd_clrn@15:nand@0:pmos-4@1.
WARNING: Less than two connections to node i2c_top_@0:i2c_subm@0:write_mo@0:sr_piso@0:ffd_clrn@15:nand@1:pmos-4@1_b.  This node is used by m:i2c_top_@0:i2c_subm@0:write_mo@0:sr_piso@0:ffd_clrn@15:nand@1:pmos-4@1.
WARNING: Less than two connections to node i2c_top_@0:i2c_subm@0:write_mo@0:sr_piso@0:ffd_clrn@15:or_notan@0:nor@0:pmos-4@2_b.  This node is used by m:i2c_top_@0:i2c_subm@0:write_mo@0:sr_piso@0:ffd_clrn@15:or_notan@0:nor@0:pmos-4@2.
WARNING: Less than two connections to node i2c_top_@0:i2c_subm@0:write_mo@0:sr_piso@0:ffd_clrn@15:or_notan@1:nor@0:pmos-4@2_b.  This node is used by m:i2c_top_@0:i2c_subm@0:write_mo@0:sr_piso@0:ffd_clrn@15:or_notan@1:nor@0:pmos-4@2.
WARNING: Less than two connections to node i2c_top_@0:i2c_subm@0:write_mo@0:sr_piso@0:ffd_clrn@16:clk_noso@0:nor@0:pmos-4@2_b.  This node is used by m:i2c_top_@0:i2c_subm@0:write_mo@0:sr_piso@0:ffd_clrn@16:clk_noso@0:nor@0:pmos-4@2.
WARNING: Less than two connections to node i2c_top_@0:i2c_subm@0:write_mo@0:sr_piso@0:ffd_clrn@16:clk_noso@0:nor@1:pmos-4@2_b.  This node is used by m:i2c_top_@0:i2c_subm@0:write_mo@0:sr_piso@0:ffd_clrn@16:clk_noso@0:nor@1:pmos-4@2.
WARNING: Less than two connections to node i2c_top_@0:i2c_subm@0:write_mo@0:sr_piso@0:ffd_clrn@16:nand@0:pmos-4@1_b.  This node is used by m:i2c_top_@0:i2c_subm@0:write_mo@0:sr_piso@0:ffd_clrn@16:nand@0:pmos-4@1.
WARNING: Less than two connections to node i2c_top_@0:i2c_subm@0:write_mo@0:sr_piso@0:ffd_clrn@16:nand@1:pmos-4@1_b.  This node is used by m:i2c_top_@0:i2c_subm@0:write_mo@0:sr_piso@0:ffd_clrn@16:nand@1:pmos-4@1.
WARNING: Less than two connections to node i2c_top_@0:i2c_subm@0:write_mo@0:sr_piso@0:ffd_clrn@16:or_notan@0:nor@0:pmos-4@2_b.  This node is used by m:i2c_top_@0:i2c_subm@0:write_mo@0:sr_piso@0:ffd_clrn@16:or_notan@0:nor@0:pmos-4@2.
WARNING: Less than two connections to node i2c_top_@0:i2c_subm@0:write_mo@0:sr_piso@0:ffd_clrn@16:or_notan@1:nor@0:pmos-4@2_b.  This node is used by m:i2c_top_@0:i2c_subm@0:write_mo@0:sr_piso@0:ffd_clrn@16:or_notan@1:nor@0:pmos-4@2.
WARNING: Less than two connections to node i2c_top_@0:i2c_subm@0:write_mo@0:sr_piso@0:nand@0:pmos-4@1_b.  This node is used by m:i2c_top_@0:i2c_subm@0:write_mo@0:sr_piso@0:nand@0:pmos-4@1.
WARNING: Less than two connections to node i2c_top_@0:i2c_subm@0:write_mo@0:sr_piso@0:nand@1:pmos-4@1_b.  This node is used by m:i2c_top_@0:i2c_subm@0:write_mo@0:sr_piso@0:nand@1:pmos-4@1.
WARNING: Less than two connections to node i2c_top_@0:i2c_subm@0:write_mo@0:sr_piso@0:nand@2:pmos-4@1_b.  This node is used by m:i2c_top_@0:i2c_subm@0:write_mo@0:sr_piso@0:nand@2:pmos-4@1.
WARNING: Less than two connections to node i2c_top_@0:i2c_subm@0:write_mo@0:sr_piso@0:nand@3:pmos-4@1_b.  This node is used by m:i2c_top_@0:i2c_subm@0:write_mo@0:sr_piso@0:nand@3:pmos-4@1.
WARNING: Less than two connections to node i2c_top_@0:i2c_subm@0:write_mo@0:sr_piso@0:nand@4:pmos-4@1_b.  This node is used by m:i2c_top_@0:i2c_subm@0:write_mo@0:sr_piso@0:nand@4:pmos-4@1.
WARNING: Less than two connections to node i2c_top_@0:i2c_subm@0:write_mo@0:sr_piso@0:nand@5:pmos-4@1_b.  This node is used by m:i2c_top_@0:i2c_subm@0:write_mo@0:sr_piso@0:nand@5:pmos-4@1.
WARNING: Less than two connections to node i2c_top_@0:i2c_subm@0:write_mo@0:sr_piso@0:nand@6:pmos-4@1_b.  This node is used by m:i2c_top_@0:i2c_subm@0:write_mo@0:sr_piso@0:nand@6:pmos-4@1.
WARNING: Less than two connections to node i2c_top_@0:i2c_subm@0:write_mo@0:sr_piso@0:nand@7:pmos-4@1_b.  This node is used by m:i2c_top_@0:i2c_subm@0:write_mo@0:sr_piso@0:nand@7:pmos-4@1.
WARNING: Less than two connections to node i2c_top_@0:i2c_subm@0:write_mo@0:sr_piso@0:nand@8:pmos-4@1_b.  This node is used by m:i2c_top_@0:i2c_subm@0:write_mo@0:sr_piso@0:nand@8:pmos-4@1.
WARNING: Less than two connections to node i2c_top_@0:i2c_subm@0:write_mo@0:sr_piso@0:nand@9:pmos-4@1_b.  This node is used by m:i2c_top_@0:i2c_subm@0:write_mo@0:sr_piso@0:nand@9:pmos-4@1.
WARNING: Less than two connections to node i2c_top_@0:i2c_subm@0:write_mo@0:sr_piso@0:nand@10:pmos-4@1_b.  This node is used by m:i2c_top_@0:i2c_subm@0:write_mo@0:sr_piso@0:nand@10:pmos-4@1.
WARNING: Less than two connections to node i2c_top_@0:i2c_subm@0:write_mo@0:sr_piso@0:nand@11:pmos-4@1_b.  This node is used by m:i2c_top_@0:i2c_subm@0:write_mo@0:sr_piso@0:nand@11:pmos-4@1.
WARNING: Less than two connections to node i2c_top_@0:i2c_subm@0:write_mo@0:sr_piso@0:nand@12:pmos-4@1_b.  This node is used by m:i2c_top_@0:i2c_subm@0:write_mo@0:sr_piso@0:nand@12:pmos-4@1.
WARNING: Less than two connections to node i2c_top_@0:i2c_subm@0:write_mo@0:sr_piso@0:nand@13:pmos-4@1_b.  This node is used by m:i2c_top_@0:i2c_subm@0:write_mo@0:sr_piso@0:nand@13:pmos-4@1.
WARNING: Less than two connections to node i2c_top_@0:i2c_subm@0:write_mo@0:sr_piso@0:nand@14:pmos-4@1_b.  This node is used by m:i2c_top_@0:i2c_subm@0:write_mo@0:sr_piso@0:nand@14:pmos-4@1.
WARNING: Less than two connections to node i2c_top_@0:i2c_subm@0:write_mo@0:sr_piso@0:nand@15:pmos-4@1_b.  This node is used by m:i2c_top_@0:i2c_subm@0:write_mo@0:sr_piso@0:nand@15:pmos-4@1.
WARNING: Less than two connections to node i2c_top_@0:i2c_subm@0:write_mo@0:sr_piso@0:nand@16:pmos-4@1_b.  This node is used by m:i2c_top_@0:i2c_subm@0:write_mo@0:sr_piso@0:nand@16:pmos-4@1.
WARNING: Less than two connections to node i2c_top_@0:ss_detec@0:nmos-4@0_b.  This node is used by m:i2c_top_@0:ss_detec@0:nmos-4@0.
WARNING: Less than two connections to node i2c_top_@0:net@9.  This node is used by m:i2c_top_@0:ss_detec@0:nmos-4@1.
WARNING: Less than two connections to node i2c_top_@0:ss_detec@0:nmos-4@1_b.  This node is used by m:i2c_top_@0:ss_detec@0:nmos-4@1.
WARNING: Less than two connections to node i2c_top_@0:ss_detec@0:ffd_clrn@0:clk_noso@0:nor@0:pmos-4@2_b.  This node is used by m:i2c_top_@0:ss_detec@0:ffd_clrn@0:clk_noso@0:nor@0:pmos-4@2.
WARNING: Less than two connections to node i2c_top_@0:ss_detec@0:ffd_clrn@0:clk_noso@0:nor@1:pmos-4@2_b.  This node is used by m:i2c_top_@0:ss_detec@0:ffd_clrn@0:clk_noso@0:nor@1:pmos-4@2.
WARNING: Less than two connections to node i2c_top_@0:ss_detec@0:ffd_clrn@0:nand@0:pmos-4@1_b.  This node is used by m:i2c_top_@0:ss_detec@0:ffd_clrn@0:nand@0:pmos-4@1.
WARNING: Less than two connections to node i2c_top_@0:ss_detec@0:ffd_clrn@0:nand@1:pmos-4@1_b.  This node is used by m:i2c_top_@0:ss_detec@0:ffd_clrn@0:nand@1:pmos-4@1.
WARNING: Less than two connections to node i2c_top_@0:ss_detec@0:ffd_clrn@0:or_notan@0:nor@0:pmos-4@2_b.  This node is used by m:i2c_top_@0:ss_detec@0:ffd_clrn@0:or_notan@0:nor@0:pmos-4@2.
WARNING: Less than two connections to node i2c_top_@0:ss_detec@0:ffd_clrn@0:or_notan@1:nor@0:pmos-4@2_b.  This node is used by m:i2c_top_@0:ss_detec@0:ffd_clrn@0:or_notan@1:nor@0:pmos-4@2.
WARNING: Less than two connections to node i2c_top_@0:ss_detec@0:ffd_clrn@1:clk_noso@0:nor@0:pmos-4@2_b.  This node is used by m:i2c_top_@0:ss_detec@0:ffd_clrn@1:clk_noso@0:nor@0:pmos-4@2.
WARNING: Less than two connections to node i2c_top_@0:ss_detec@0:ffd_clrn@1:clk_noso@0:nor@1:pmos-4@2_b.  This node is used by m:i2c_top_@0:ss_detec@0:ffd_clrn@1:clk_noso@0:nor@1:pmos-4@2.
WARNING: Less than two connections to node i2c_top_@0:ss_detec@0:ffd_clrn@1:nand@0:pmos-4@1_b.  This node is used by m:i2c_top_@0:ss_detec@0:ffd_clrn@1:nand@0:pmos-4@1.
WARNING: Less than two connections to node i2c_top_@0:ss_detec@0:ffd_clrn@1:nand@1:pmos-4@1_b.  This node is used by m:i2c_top_@0:ss_detec@0:ffd_clrn@1:nand@1:pmos-4@1.
WARNING: Less than two connections to node i2c_top_@0:ss_detec@0:ffd_clrn@1:or_notan@0:nor@0:pmos-4@2_b.  This node is used by m:i2c_top_@0:ss_detec@0:ffd_clrn@1:or_notan@0:nor@0:pmos-4@2.
WARNING: Less than two connections to node i2c_top_@0:ss_detec@0:ffd_clrn@1:or_notan@1:nor@0:pmos-4@2_b.  This node is used by m:i2c_top_@0:ss_detec@0:ffd_clrn@1:or_notan@1:nor@0:pmos-4@2.
Warning: Pd = 0 is less than W.
Warning: Ps = 0 is less than W.
Warning: Pd = 0 is less than W.
Warning: Ps = 0 is less than W.
Early termination of direct N-R iteration.
Direct Newton iteration failed to find .op point.  (Use ".option noopiter" to skip.)
Starting Gmin stepping
Gmin = 10
Gmin = 1.07374
Gmin = 0.115292
Gmin = 0.0123794
Gmin = 0.00132923
Gmin = 0.000142725
Gmin = 1.5325e-05
Gmin = 1.6455e-06
Gmin = 1.76685e-07
Gmin = 1.89714e-08
Gmin = 2.03704e-09
Gmin = 2.18725e-10
Gmin = 2.34854e-11
Gmin = 2.52173e-12
Gmin = 2.70769e-13
Gmin = 0
Gmin stepping succeeded in finding the operating point.


Date: Sun Jul 21 21:08:26 2024
Total elapsed time: 358.827 seconds.

tnom = 27
temp = 27
method = modified trap
totiter = 168371
traniter = 167912
tranpoints = 47915
accept = 35569
rejected = 12346
matrix size = 2135
fillins = 8138
solver = Normal
Avg thread counts: 6.0/3.0/1.0/1.0
Matrix Compiler1:  530475 opcodes  1619.0/[891.1]/1053.1
Matrix Compiler2: 778.25 KB object code size  332.6/184.4/[136.1]

