Circuit: *** SPICE deck for cell I2C_Top_Module_simulation{sch} from library ADCD_Hipperdinger

Warning: Multiple definitions of model "pmost81" Type: BSIM3
Warning: Multiple definitions of model "pmost51" Type: BSIM3
Warning: Multiple definitions of model "pmost42" Type: BSIM3
Warning: Multiple definitions of model "pmost39" Type: BSIM3
Warning: Multiple definitions of model "pmost36" Type: BSIM3
Warning: Multiple definitions of model "nmost81" Type: BSIM3
Warning: Multiple definitions of model "nmost51" Type: BSIM3
Warning: Multiple definitions of model "nmost42" Type: BSIM3
Warning: Multiple definitions of model "nmost39" Type: BSIM3
Warning: Multiple definitions of model "nmost36" Type: BSIM3
Ignoring BSIM parameter ACM
Ignoring BSIM parameter HDIF
Ignoring BSIM parameter TLEV
Ignoring BSIM parameter ACM
Ignoring BSIM parameter HDIF
Ignoring BSIM parameter TLEV
WARNING: Node I2C_SUBM@0:AND@0:NAND@0:PMOS-4@1_B is floating.
WARNING: Node I2C_SUBM@0:CLK_NOSO@0:NOR@0:PMOS-4@2_B is floating.
WARNING: Node I2C_SUBM@0:CLK_NOSO@0:NOR@1:PMOS-4@2_B is floating.
WARNING: Node I2C_SUBM@0:COUNTER_@0:_3B_NAND@0:NAND@0:PMOS-4@1_B is floating.
WARNING: Node I2C_SUBM@0:COUNTER_@0:_3B_NAND@0:NAND@1:PMOS-4@1_B is floating.
WARNING: Node I2C_SUBM@0:COUNTER_@0:_3B_NAND@0:NAND@2:PMOS-4@1_B is floating.
WARNING: Node I2C_SUBM@0:COUNTER_@0:_3B_NAND@0:NAND@3:PMOS-4@1_B is floating.
WARNING: Node I2C_SUBM@0:COUNTER_@0:_3B_NAND@0:NOR@0:PMOS-4@2_B is floating.
WARNING: Node I2C_SUBM@0:COUNTER_@0:_3B_COUNT@0:FFD_CLRN@0:CLK_NOSO@0:NOR@0:PMOS-4@2_B is floating.
WARNING: Node I2C_SUBM@0:COUNTER_@0:_3B_COUNT@0:FFD_CLRN@0:CLK_NOSO@0:NOR@1:PMOS-4@2_B is floating.
WARNING: Node I2C_SUBM@0:COUNTER_@0:_3B_COUNT@0:FFD_CLRN@0:NAND@0:PMOS-4@1_B is floating.
WARNING: Node I2C_SUBM@0:COUNTER_@0:_3B_COUNT@0:FFD_CLRN@0:NAND@1:PMOS-4@1_B is floating.
WARNING: Node I2C_SUBM@0:COUNTER_@0:_3B_COUNT@0:FFD_CLRN@0:OR_NOTAN@0:NOR@0:PMOS-4@2_B is floating.
WARNING: Node I2C_SUBM@0:COUNTER_@0:_3B_COUNT@0:FFD_CLRN@0:OR_NOTAN@1:NOR@0:PMOS-4@2_B is floating.
WARNING: Node I2C_SUBM@0:COUNTER_@0:_3B_COUNT@0:FFD_CLRN@1:CLK_NOSO@0:NOR@0:PMOS-4@2_B is floating.
WARNING: Node I2C_SUBM@0:COUNTER_@0:_3B_COUNT@0:FFD_CLRN@1:CLK_NOSO@0:NOR@1:PMOS-4@2_B is floating.
WARNING: Node I2C_SUBM@0:COUNTER_@0:_3B_COUNT@0:FFD_CLRN@1:NAND@0:PMOS-4@1_B is floating.
WARNING: Node I2C_SUBM@0:COUNTER_@0:_3B_COUNT@0:FFD_CLRN@1:NAND@1:PMOS-4@1_B is floating.
WARNING: Node I2C_SUBM@0:COUNTER_@0:_3B_COUNT@0:FFD_CLRN@1:OR_NOTAN@0:NOR@0:PMOS-4@2_B is floating.
WARNING: Node I2C_SUBM@0:COUNTER_@0:_3B_COUNT@0:FFD_CLRN@1:OR_NOTAN@1:NOR@0:PMOS-4@2_B is floating.
WARNING: Node I2C_SUBM@0:COUNTER_@0:_3B_COUNT@0:FFD_CLRN@2:CLK_NOSO@0:NOR@0:PMOS-4@2_B is floating.
WARNING: Node I2C_SUBM@0:COUNTER_@0:_3B_COUNT@0:FFD_CLRN@2:CLK_NOSO@0:NOR@1:PMOS-4@2_B is floating.
WARNING: Node I2C_SUBM@0:COUNTER_@0:_3B_COUNT@0:FFD_CLRN@2:NAND@0:PMOS-4@1_B is floating.
WARNING: Node I2C_SUBM@0:COUNTER_@0:_3B_COUNT@0:FFD_CLRN@2:NAND@1:PMOS-4@1_B is floating.
WARNING: Node I2C_SUBM@0:COUNTER_@0:_3B_COUNT@0:FFD_CLRN@2:OR_NOTAN@0:NOR@0:PMOS-4@2_B is floating.
WARNING: Node I2C_SUBM@0:COUNTER_@0:_3B_COUNT@0:FFD_CLRN@2:OR_NOTAN@1:NOR@0:PMOS-4@2_B is floating.
WARNING: Node I2C_SUBM@0:COUNTER_@0:_3B_COUNT@0:NAND@0:PMOS-4@1_B is floating.
WARNING: Node I2C_SUBM@0:COUNTER_@0:_3B_COUNT@0:XOR@0:NAND@0:PMOS-4@1_B is floating.
WARNING: Node I2C_SUBM@0:COUNTER_@0:_3B_COUNT@0:XOR@0:NAND@1:PMOS-4@1_B is floating.
WARNING: Node I2C_SUBM@0:COUNTER_@0:_3B_COUNT@0:XOR@0:NAND@2:PMOS-4@1_B is floating.
WARNING: Node I2C_SUBM@0:COUNTER_@0:_3B_COUNT@0:XOR@0:NAND@3:PMOS-4@1_B is floating.
WARNING: Node I2C_SUBM@0:COUNTER_@0:_3B_COUNT@0:XOR@1:NAND@0:PMOS-4@1_B is floating.
WARNING: Node I2C_SUBM@0:COUNTER_@0:_3B_COUNT@0:XOR@1:NAND@1:PMOS-4@1_B is floating.
WARNING: Node I2C_SUBM@0:COUNTER_@0:_3B_COUNT@0:XOR@1:NAND@2:PMOS-4@1_B is floating.
WARNING: Node I2C_SUBM@0:COUNTER_@0:_3B_COUNT@0:XOR@1:NAND@3:PMOS-4@1_B is floating.
WARNING: Node I2C_SUBM@0:COUNTER_@0:FFD_CLRN@0:CLK_NOSO@0:NOR@0:PMOS-4@2_B is floating.
WARNING: Node I2C_SUBM@0:COUNTER_@0:FFD_CLRN@0:CLK_NOSO@0:NOR@1:PMOS-4@2_B is floating.
WARNING: Node I2C_SUBM@0:COUNTER_@0:FFD_CLRN@0:NAND@0:PMOS-4@1_B is floating.
WARNING: Node I2C_SUBM@0:COUNTER_@0:FFD_CLRN@0:NAND@1:PMOS-4@1_B is floating.
WARNING: Node I2C_SUBM@0:COUNTER_@0:FFD_CLRN@0:OR_NOTAN@0:NOR@0:PMOS-4@2_B is floating.
WARNING: Node I2C_SUBM@0:COUNTER_@0:FFD_CLRN@0:OR_NOTAN@1:NOR@0:PMOS-4@2_B is floating.
WARNING: Node I2C_SUBM@0:COUNTER_@0:FFD_CLRN@1:CLK_NOSO@0:NOR@0:PMOS-4@2_B is floating.
WARNING: Node I2C_SUBM@0:COUNTER_@0:FFD_CLRN@1:CLK_NOSO@0:NOR@1:PMOS-4@2_B is floating.
WARNING: Node I2C_SUBM@0:COUNTER_@0:FFD_CLRN@1:NAND@0:PMOS-4@1_B is floating.
WARNING: Node I2C_SUBM@0:COUNTER_@0:FFD_CLRN@1:NAND@1:PMOS-4@1_B is floating.
WARNING: Node I2C_SUBM@0:COUNTER_@0:FFD_CLRN@1:OR_NOTAN@0:NOR@0:PMOS-4@2_B is floating.
WARNING: Node I2C_SUBM@0:COUNTER_@0:FFD_CLRN@1:OR_NOTAN@1:NOR@0:PMOS-4@2_B is floating.
WARNING: Node I2C_SUBM@0:COUNTER_@0:NAND@1:PMOS-4@1_B is floating.
WARNING: Node I2C_SUBM@0:COUNTER_@0:NOR@0:PMOS-4@2_B is floating.
WARNING: Node I2C_SUBM@0:COUNTER_@0:NOR@1:PMOS-4@2_B is floating.
WARNING: Node I2C_SUBM@0:COUNTER_@0:SET_RESE@0:NOR@0:PMOS-4@2_B is floating.
WARNING: Node I2C_SUBM@0:COUNTER_@0:SET_RESE@0:NOR@1:PMOS-4@2_B is floating.
WARNING: Node I2C_SUBM@0:COUNTER_@0:SET_RESE@1:NOR@0:PMOS-4@2_B is floating.
WARNING: Node I2C_SUBM@0:COUNTER_@0:SET_RESE@1:NOR@1:PMOS-4@2_B is floating.
WARNING: Node I2C_SUBM@0:FFD_CLRN@0:CLK_NOSO@0:NOR@0:PMOS-4@2_B is floating.
WARNING: Node I2C_SUBM@0:FFD_CLRN@0:CLK_NOSO@0:NOR@1:PMOS-4@2_B is floating.
WARNING: Node I2C_SUBM@0:FFD_CLRN@0:NAND@0:PMOS-4@1_B is floating.
WARNING: Node I2C_SUBM@0:FFD_CLRN@0:NAND@1:PMOS-4@1_B is floating.
WARNING: Node I2C_SUBM@0:FFD_CLRN@0:OR_NOTAN@0:NOR@0:PMOS-4@2_B is floating.
WARNING: Node I2C_SUBM@0:FFD_CLRN@0:OR_NOTAN@1:NOR@0:PMOS-4@2_B is floating.
WARNING: Node I2C_SUBM@0:NOR@0:PMOS-4@2_B is floating.
WARNING: Node I2C_SUBM@0:OR@0:NOR@0:PMOS-4@2_B is floating.
WARNING: Node I2C_SUBM@0:OR@1:NOR@0:PMOS-4@2_B is floating.
WARNING: Node I2C_SUBM@0:OR@2:NOR@0:PMOS-4@2_B is floating.
WARNING: Node I2C_SUBM@0:OR@4:NOR@0:PMOS-4@2_B is floating.
WARNING: Node I2C_SUBM@0:R_W_MODU@0:AND@0:NAND@0:PMOS-4@1_B is floating.
WARNING: Node I2C_SUBM@0:R_W_MODU@0:AND@1:NAND@0:PMOS-4@1_B is floating.
WARNING: Node I2C_SUBM@0:R_W_MODU@0:AND@2:NAND@0:PMOS-4@1_B is floating.
WARNING: Node I2C_SUBM@0:R_W_MODU@0:FFD_CLRN@0:CLK_NOSO@0:NOR@0:PMOS-4@2_B is floating.
WARNING: Node I2C_SUBM@0:R_W_MODU@0:FFD_CLRN@0:CLK_NOSO@0:NOR@1:PMOS-4@2_B is floating.
WARNING: Node I2C_SUBM@0:R_W_MODU@0:FFD_CLRN@0:NAND@0:PMOS-4@1_B is floating.
WARNING: Node I2C_SUBM@0:R_W_MODU@0:FFD_CLRN@0:NAND@1:PMOS-4@1_B is floating.
WARNING: Node I2C_SUBM@0:R_W_MODU@0:FFD_CLRN@0:OR_NOTAN@0:NOR@0:PMOS-4@2_B is floating.
WARNING: Node I2C_SUBM@0:R_W_MODU@0:FFD_CLRN@0:OR_NOTAN@1:NOR@0:PMOS-4@2_B is floating.
WARNING: Node I2C_SUBM@0:R_W_MODU@0:NOR@0:PMOS-4@2_B is floating.
WARNING: Node I2C_SUBM@0:SR_SIPO_@0:FFD_CLRN@0:CLK_NOSO@0:NOR@0:PMOS-4@2_B is floating.
WARNING: Node I2C_SUBM@0:SR_SIPO_@0:FFD_CLRN@0:CLK_NOSO@0:NOR@1:PMOS-4@2_B is floating.
WARNING: Node I2C_SUBM@0:SR_SIPO_@0:FFD_CLRN@0:NAND@0:PMOS-4@1_B is floating.
WARNING: Node I2C_SUBM@0:SR_SIPO_@0:FFD_CLRN@0:NAND@1:PMOS-4@1_B is floating.
WARNING: Node I2C_SUBM@0:SR_SIPO_@0:FFD_CLRN@0:OR_NOTAN@0:NOR@0:PMOS-4@2_B is floating.
WARNING: Node I2C_SUBM@0:SR_SIPO_@0:FFD_CLRN@0:OR_NOTAN@1:NOR@0:PMOS-4@2_B is floating.
WARNING: Node I2C_SUBM@0:SR_SIPO_@0:FFD_CLRN@1:CLK_NOSO@0:NOR@0:PMOS-4@2_B is floating.
WARNING: Node I2C_SUBM@0:SR_SIPO_@0:FFD_CLRN@1:CLK_NOSO@0:NOR@1:PMOS-4@2_B is floating.
WARNING: Node I2C_SUBM@0:SR_SIPO_@0:FFD_CLRN@1:NAND@0:PMOS-4@1_B is floating.
WARNING: Node I2C_SUBM@0:SR_SIPO_@0:FFD_CLRN@1:NAND@1:PMOS-4@1_B is floating.
WARNING: Node I2C_SUBM@0:SR_SIPO_@0:FFD_CLRN@1:OR_NOTAN@0:NOR@0:PMOS-4@2_B is floating.
WARNING: Node I2C_SUBM@0:SR_SIPO_@0:FFD_CLRN@1:OR_NOTAN@1:NOR@0:PMOS-4@2_B is floating.
WARNING: Node I2C_SUBM@0:SR_SIPO_@0:FFD_CLRN@2:CLK_NOSO@0:NOR@0:PMOS-4@2_B is floating.
WARNING: Node I2C_SUBM@0:SR_SIPO_@0:FFD_CLRN@2:CLK_NOSO@0:NOR@1:PMOS-4@2_B is floating.
WARNING: Node I2C_SUBM@0:SR_SIPO_@0:FFD_CLRN@2:NAND@0:PMOS-4@1_B is floating.
WARNING: Node I2C_SUBM@0:SR_SIPO_@0:FFD_CLRN@2:NAND@1:PMOS-4@1_B is floating.
WARNING: Node I2C_SUBM@0:SR_SIPO_@0:FFD_CLRN@2:OR_NOTAN@0:NOR@0:PMOS-4@2_B is floating.
WARNING: Node I2C_SUBM@0:SR_SIPO_@0:FFD_CLRN@2:OR_NOTAN@1:NOR@0:PMOS-4@2_B is floating.
WARNING: Node I2C_SUBM@0:SR_SIPO_@0:FFD_CLRN@3:CLK_NOSO@0:NOR@0:PMOS-4@2_B is floating.
WARNING: Node I2C_SUBM@0:SR_SIPO_@0:FFD_CLRN@3:CLK_NOSO@0:NOR@1:PMOS-4@2_B is floating.
WARNING: Node I2C_SUBM@0:SR_SIPO_@0:FFD_CLRN@3:NAND@0:PMOS-4@1_B is floating.
WARNING: Node I2C_SUBM@0:SR_SIPO_@0:FFD_CLRN@3:NAND@1:PMOS-4@1_B is floating.
WARNING: Node I2C_SUBM@0:SR_SIPO_@0:FFD_CLRN@3:OR_NOTAN@0:NOR@0:PMOS-4@2_B is floating.
WARNING: Node I2C_SUBM@0:SR_SIPO_@0:FFD_CLRN@3:OR_NOTAN@1:NOR@0:PMOS-4@2_B is floating.
WARNING: Node I2C_SUBM@0:SR_SIPO_@0:FFD_CLRN@8:CLK_NOSO@0:NOR@0:PMOS-4@2_B is floating.
WARNING: Node I2C_SUBM@0:SR_SIPO_@0:FFD_CLRN@8:CLK_NOSO@0:NOR@1:PMOS-4@2_B is floating.
WARNING: Node I2C_SUBM@0:SR_SIPO_@0:FFD_CLRN@8:NAND@0:PMOS-4@1_B is floating.
WARNING: Node I2C_SUBM@0:SR_SIPO_@0:FFD_CLRN@8:NAND@1:PMOS-4@1_B is floating.
WARNING: Node I2C_SUBM@0:SR_SIPO_@0:FFD_CLRN@8:OR_NOTAN@0:NOR@0:PMOS-4@2_B is floating.
WARNING: Node I2C_SUBM@0:SR_SIPO_@0:FFD_CLRN@8:OR_NOTAN@1:NOR@0:PMOS-4@2_B is floating.
WARNING: Node I2C_SUBM@0:SR_SIPO_@0:FFD_CLRN@9:CLK_NOSO@0:NOR@0:PMOS-4@2_B is floating.
WARNING: Node I2C_SUBM@0:SR_SIPO_@0:FFD_CLRN@9:CLK_NOSO@0:NOR@1:PMOS-4@2_B is floating.
WARNING: Node I2C_SUBM@0:SR_SIPO_@0:FFD_CLRN@9:NAND@0:PMOS-4@1_B is floating.
WARNING: Node I2C_SUBM@0:SR_SIPO_@0:FFD_CLRN@9:NAND@1:PMOS-4@1_B is floating.
WARNING: Node I2C_SUBM@0:SR_SIPO_@0:FFD_CLRN@9:OR_NOTAN@0:NOR@0:PMOS-4@2_B is floating.
WARNING: Node I2C_SUBM@0:SR_SIPO_@0:FFD_CLRN@9:OR_NOTAN@1:NOR@0:PMOS-4@2_B is floating.
WARNING: Node I2C_SUBM@0:SR_SIPO_@0:FFD_CLRN@10:CLK_NOSO@0:NOR@0:PMOS-4@2_B is floating.
WARNING: Node I2C_SUBM@0:SR_SIPO_@0:FFD_CLRN@10:CLK_NOSO@0:NOR@1:PMOS-4@2_B is floating.
WARNING: Node I2C_SUBM@0:SR_SIPO_@0:FFD_CLRN@10:NAND@0:PMOS-4@1_B is floating.
WARNING: Node I2C_SUBM@0:SR_SIPO_@0:FFD_CLRN@10:NAND@1:PMOS-4@1_B is floating.
WARNING: Node I2C_SUBM@0:SR_SIPO_@0:FFD_CLRN@10:OR_NOTAN@0:NOR@0:PMOS-4@2_B is floating.
WARNING: Node I2C_SUBM@0:SR_SIPO_@0:FFD_CLRN@10:OR_NOTAN@1:NOR@0:PMOS-4@2_B is floating.
WARNING: Node I2C_SUBM@0:SR_SIPO_@0:FFD_CLRN@11:CLK_NOSO@0:NOR@0:PMOS-4@2_B is floating.
WARNING: Node I2C_SUBM@0:SR_SIPO_@0:FFD_CLRN@11:CLK_NOSO@0:NOR@1:PMOS-4@2_B is floating.
WARNING: Node I2C_SUBM@0:SR_SIPO_@0:FFD_CLRN@11:NAND@0:PMOS-4@1_B is floating.
WARNING: Node I2C_SUBM@0:SR_SIPO_@0:FFD_CLRN@11:NAND@1:PMOS-4@1_B is floating.
WARNING: Node I2C_SUBM@0:SR_SIPO_@0:FFD_CLRN@11:OR_NOTAN@0:NOR@0:PMOS-4@2_B is floating.
WARNING: Node I2C_SUBM@0:SR_SIPO_@0:FFD_CLRN@11:OR_NOTAN@1:NOR@0:PMOS-4@2_B is floating.
WARNING: Node I2C_SUBM@0:ADD_DETE@0:_14B_EQUA@0:_6B_AND@0:NAND@0:PMOS-4@1_B is floating.
WARNING: Node I2C_SUBM@0:ADD_DETE@0:_14B_EQUA@0:_6B_AND@0:NAND@1:PMOS-4@1_B is floating.
WARNING: Node I2C_SUBM@0:ADD_DETE@0:_14B_EQUA@0:_6B_AND@0:NAND@2:PMOS-4@1_B is floating.
WARNING: Node I2C_SUBM@0:ADD_DETE@0:_14B_EQUA@0:_6B_AND@0:NAND@3:PMOS-4@1_B is floating.
WARNING: Node I2C_SUBM@0:ADD_DETE@0:_14B_EQUA@0:_6B_AND@0:NOR@0:PMOS-4@2_B is floating.
WARNING: Node I2C_SUBM@0:ADD_DETE@0:_14B_EQUA@0:AND@0:NAND@0:PMOS-4@1_B is floating.
WARNING: Node I2C_SUBM@0:ADD_DETE@0:_14B_EQUA@0:NOR@0:PMOS-4@2_B is floating.
WARNING: Node I2C_SUBM@0:ADD_DETE@0:_14B_EQUA@0:NOR@1:PMOS-4@2_B is floating.
WARNING: Node I2C_SUBM@0:ADD_DETE@0:_14B_EQUA@0:NOR@2:PMOS-4@2_B is floating.
WARNING: Node I2C_SUBM@0:ADD_DETE@0:_14B_EQUA@0:XOR@0:NAND@0:PMOS-4@1_B is floating.
WARNING: Node I2C_SUBM@0:ADD_DETE@0:_14B_EQUA@0:XOR@0:NAND@1:PMOS-4@1_B is floating.
WARNING: Node I2C_SUBM@0:ADD_DETE@0:_14B_EQUA@0:XOR@0:NAND@2:PMOS-4@1_B is floating.
WARNING: Node I2C_SUBM@0:ADD_DETE@0:_14B_EQUA@0:XOR@0:NAND@3:PMOS-4@1_B is floating.
WARNING: Node I2C_SUBM@0:ADD_DETE@0:_14B_EQUA@0:XOR@1:NAND@0:PMOS-4@1_B is floating.
WARNING: Node I2C_SUBM@0:ADD_DETE@0:_14B_EQUA@0:XOR@1:NAND@1:PMOS-4@1_B is floating.
WARNING: Node I2C_SUBM@0:ADD_DETE@0:_14B_EQUA@0:XOR@1:NAND@2:PMOS-4@1_B is floating.
WARNING: Node I2C_SUBM@0:ADD_DETE@0:_14B_EQUA@0:XOR@1:NAND@3:PMOS-4@1_B is floating.
WARNING: Node I2C_SUBM@0:ADD_DETE@0:_14B_EQUA@0:XOR@2:NAND@0:PMOS-4@1_B is floating.
WARNING: Node I2C_SUBM@0:ADD_DETE@0:_14B_EQUA@0:XOR@2:NAND@1:PMOS-4@1_B is floating.
WARNING: Node I2C_SUBM@0:ADD_DETE@0:_14B_EQUA@0:XOR@2:NAND@2:PMOS-4@1_B is floating.
WARNING: Node I2C_SUBM@0:ADD_DETE@0:_14B_EQUA@0:XOR@2:NAND@3:PMOS-4@1_B is floating.
WARNING: Node I2C_SUBM@0:ADD_DETE@0:_14B_EQUA@0:XOR@3:NAND@0:PMOS-4@1_B is floating.
WARNING: Node I2C_SUBM@0:ADD_DETE@0:_14B_EQUA@0:XOR@3:NAND@1:PMOS-4@1_B is floating.
WARNING: Node I2C_SUBM@0:ADD_DETE@0:_14B_EQUA@0:XOR@3:NAND@2:PMOS-4@1_B is floating.
WARNING: Node I2C_SUBM@0:ADD_DETE@0:_14B_EQUA@0:XOR@3:NAND@3:PMOS-4@1_B is floating.
WARNING: Node I2C_SUBM@0:ADD_DETE@0:_14B_EQUA@0:XOR@4:NAND@0:PMOS-4@1_B is floating.
WARNING: Node I2C_SUBM@0:ADD_DETE@0:_14B_EQUA@0:XOR@4:NAND@1:PMOS-4@1_B is floating.
WARNING: Node I2C_SUBM@0:ADD_DETE@0:_14B_EQUA@0:XOR@4:NAND@2:PMOS-4@1_B is floating.
WARNING: Node I2C_SUBM@0:ADD_DETE@0:_14B_EQUA@0:XOR@4:NAND@3:PMOS-4@1_B is floating.
WARNING: Node I2C_SUBM@0:ADD_DETE@0:_14B_EQUA@0:XOR@5:NAND@0:PMOS-4@1_B is floating.
WARNING: Node I2C_SUBM@0:ADD_DETE@0:_14B_EQUA@0:XOR@5:NAND@1:PMOS-4@1_B is floating.
WARNING: Node I2C_SUBM@0:ADD_DETE@0:_14B_EQUA@0:XOR@5:NAND@2:PMOS-4@1_B is floating.
WARNING: Node I2C_SUBM@0:ADD_DETE@0:_14B_EQUA@0:XOR@5:NAND@3:PMOS-4@1_B is floating.
WARNING: Node I2C_SUBM@0:ADD_DETE@0:_14B_EQUA@0:XOR@6:NAND@0:PMOS-4@1_B is floating.
WARNING: Node I2C_SUBM@0:ADD_DETE@0:_14B_EQUA@0:XOR@6:NAND@1:PMOS-4@1_B is floating.
WARNING: Node I2C_SUBM@0:ADD_DETE@0:_14B_EQUA@0:XOR@6:NAND@2:PMOS-4@1_B is floating.
WARNING: Node I2C_SUBM@0:ADD_DETE@0:_14B_EQUA@0:XOR@6:NAND@3:PMOS-4@1_B is floating.
WARNING: Node I2C_SUBM@0:ADD_DETE@0:AND@0:NAND@0:PMOS-4@1_B is floating.
WARNING: Node I2C_SUBM@0:ADD_DETE@0:FFD_CLRN@0:CLK_NOSO@0:NOR@0:PMOS-4@2_B is floating.
WARNING: Node I2C_SUBM@0:ADD_DETE@0:FFD_CLRN@0:CLK_NOSO@0:NOR@1:PMOS-4@2_B is floating.
WARNING: Node I2C_SUBM@0:ADD_DETE@0:FFD_CLRN@0:NAND@0:PMOS-4@1_B is floating.
WARNING: Node I2C_SUBM@0:ADD_DETE@0:FFD_CLRN@0:NAND@1:PMOS-4@1_B is floating.
WARNING: Node I2C_SUBM@0:ADD_DETE@0:FFD_CLRN@0:OR_NOTAN@0:NOR@0:PMOS-4@2_B is floating.
WARNING: Node I2C_SUBM@0:ADD_DETE@0:FFD_CLRN@0:OR_NOTAN@1:NOR@0:PMOS-4@2_B is floating.
WARNING: Node I2C_SUBM@0:ADD_DETE@0:FFD_CLRN@2:CLK_NOSO@0:NOR@0:PMOS-4@2_B is floating.
WARNING: Node I2C_SUBM@0:ADD_DETE@0:FFD_CLRN@2:CLK_NOSO@0:NOR@1:PMOS-4@2_B is floating.
WARNING: Node I2C_SUBM@0:ADD_DETE@0:FFD_CLRN@2:NAND@0:PMOS-4@1_B is floating.
WARNING: Node I2C_SUBM@0:ADD_DETE@0:FFD_CLRN@2:NAND@1:PMOS-4@1_B is floating.
WARNING: Node I2C_SUBM@0:ADD_DETE@0:FFD_CLRN@2:OR_NOTAN@0:NOR@0:PMOS-4@2_B is floating.
WARNING: Node I2C_SUBM@0:ADD_DETE@0:FFD_CLRN@2:OR_NOTAN@1:NOR@0:PMOS-4@2_B is floating.
WARNING: Node I2C_SUBM@0:ADD_DETE@0:FFD_CLRN@3:CLK_NOSO@0:NOR@0:PMOS-4@2_B is floating.
WARNING: Node I2C_SUBM@0:ADD_DETE@0:FFD_CLRN@3:CLK_NOSO@0:NOR@1:PMOS-4@2_B is floating.
WARNING: Node I2C_SUBM@0:ADD_DETE@0:FFD_CLRN@3:NAND@0:PMOS-4@1_B is floating.
WARNING: Node I2C_SUBM@0:ADD_DETE@0:FFD_CLRN@3:NAND@1:PMOS-4@1_B is floating.
WARNING: Node I2C_SUBM@0:ADD_DETE@0:FFD_CLRN@3:OR_NOTAN@0:NOR@0:PMOS-4@2_B is floating.
WARNING: Node I2C_SUBM@0:ADD_DETE@0:FFD_CLRN@3:OR_NOTAN@1:NOR@0:PMOS-4@2_B is floating.
WARNING: Node I2C_SUBM@0:ADD_DETE@0:XOR@0:NAND@0:PMOS-4@1_B is floating.
WARNING: Node I2C_SUBM@0:ADD_DETE@0:XOR@0:NAND@1:PMOS-4@1_B is floating.
WARNING: Node I2C_SUBM@0:ADD_DETE@0:XOR@0:NAND@2:PMOS-4@1_B is floating.
WARNING: Node I2C_SUBM@0:ADD_DETE@0:XOR@0:NAND@3:PMOS-4@1_B is floating.
WARNING: Node I2C_SUBM@0:BUFF_8BI@0:FFD_CLRN@0:CLK_NOSO@0:NOR@0:PMOS-4@2_B is floating.
WARNING: Node I2C_SUBM@0:BUFF_8BI@0:FFD_CLRN@0:CLK_NOSO@0:NOR@1:PMOS-4@2_B is floating.
WARNING: Node I2C_SUBM@0:BUFF_8BI@0:FFD_CLRN@0:NAND@0:PMOS-4@1_B is floating.
WARNING: Node I2C_SUBM@0:BUFF_8BI@0:FFD_CLRN@0:NAND@1:PMOS-4@1_B is floating.
WARNING: Node I2C_SUBM@0:BUFF_8BI@0:FFD_CLRN@0:OR_NOTAN@0:NOR@0:PMOS-4@2_B is floating.
WARNING: Node I2C_SUBM@0:BUFF_8BI@0:FFD_CLRN@0:OR_NOTAN@1:NOR@0:PMOS-4@2_B is floating.
WARNING: Node I2C_SUBM@0:BUFF_8BI@0:FFD_CLRN@1:CLK_NOSO@0:NOR@0:PMOS-4@2_B is floating.
WARNING: Node I2C_SUBM@0:BUFF_8BI@0:FFD_CLRN@1:CLK_NOSO@0:NOR@1:PMOS-4@2_B is floating.
WARNING: Node I2C_SUBM@0:BUFF_8BI@0:FFD_CLRN@1:NAND@0:PMOS-4@1_B is floating.
WARNING: Node I2C_SUBM@0:BUFF_8BI@0:FFD_CLRN@1:NAND@1:PMOS-4@1_B is floating.
WARNING: Node I2C_SUBM@0:BUFF_8BI@0:FFD_CLRN@1:OR_NOTAN@0:NOR@0:PMOS-4@2_B is floating.
WARNING: Node I2C_SUBM@0:BUFF_8BI@0:FFD_CLRN@1:OR_NOTAN@1:NOR@0:PMOS-4@2_B is floating.
WARNING: Node I2C_SUBM@0:BUFF_8BI@0:FFD_CLRN@2:CLK_NOSO@0:NOR@0:PMOS-4@2_B is floating.
WARNING: Node I2C_SUBM@0:BUFF_8BI@0:FFD_CLRN@2:CLK_NOSO@0:NOR@1:PMOS-4@2_B is floating.
WARNING: Node I2C_SUBM@0:BUFF_8BI@0:FFD_CLRN@2:NAND@0:PMOS-4@1_B is floating.
WARNING: Node I2C_SUBM@0:BUFF_8BI@0:FFD_CLRN@2:NAND@1:PMOS-4@1_B is floating.
WARNING: Node I2C_SUBM@0:BUFF_8BI@0:FFD_CLRN@2:OR_NOTAN@0:NOR@0:PMOS-4@2_B is floating.
WARNING: Node I2C_SUBM@0:BUFF_8BI@0:FFD_CLRN@2:OR_NOTAN@1:NOR@0:PMOS-4@2_B is floating.
WARNING: Node I2C_SUBM@0:BUFF_8BI@0:FFD_CLRN@3:CLK_NOSO@0:NOR@0:PMOS-4@2_B is floating.
WARNING: Node I2C_SUBM@0:BUFF_8BI@0:FFD_CLRN@3:CLK_NOSO@0:NOR@1:PMOS-4@2_B is floating.
WARNING: Node I2C_SUBM@0:BUFF_8BI@0:FFD_CLRN@3:NAND@0:PMOS-4@1_B is floating.
WARNING: Node I2C_SUBM@0:BUFF_8BI@0:FFD_CLRN@3:NAND@1:PMOS-4@1_B is floating.
WARNING: Node I2C_SUBM@0:BUFF_8BI@0:FFD_CLRN@3:OR_NOTAN@0:NOR@0:PMOS-4@2_B is floating.
WARNING: Node I2C_SUBM@0:BUFF_8BI@0:FFD_CLRN@3:OR_NOTAN@1:NOR@0:PMOS-4@2_B is floating.
WARNING: Node I2C_SUBM@0:BUFF_8BI@0:FFD_CLRN@4:CLK_NOSO@0:NOR@0:PMOS-4@2_B is floating.
WARNING: Node I2C_SUBM@0:BUFF_8BI@0:FFD_CLRN@4:CLK_NOSO@0:NOR@1:PMOS-4@2_B is floating.
WARNING: Node I2C_SUBM@0:BUFF_8BI@0:FFD_CLRN@4:NAND@0:PMOS-4@1_B is floating.
WARNING: Node I2C_SUBM@0:BUFF_8BI@0:FFD_CLRN@4:NAND@1:PMOS-4@1_B is floating.
WARNING: Node I2C_SUBM@0:BUFF_8BI@0:FFD_CLRN@4:OR_NOTAN@0:NOR@0:PMOS-4@2_B is floating.
WARNING: Node I2C_SUBM@0:BUFF_8BI@0:FFD_CLRN@4:OR_NOTAN@1:NOR@0:PMOS-4@2_B is floating.
WARNING: Node I2C_SUBM@0:BUFF_8BI@0:FFD_CLRN@5:CLK_NOSO@0:NOR@0:PMOS-4@2_B is floating.
WARNING: Node I2C_SUBM@0:BUFF_8BI@0:FFD_CLRN@5:CLK_NOSO@0:NOR@1:PMOS-4@2_B is floating.
WARNING: Node I2C_SUBM@0:BUFF_8BI@0:FFD_CLRN@5:NAND@0:PMOS-4@1_B is floating.
WARNING: Node I2C_SUBM@0:BUFF_8BI@0:FFD_CLRN@5:NAND@1:PMOS-4@1_B is floating.
WARNING: Node I2C_SUBM@0:BUFF_8BI@0:FFD_CLRN@5:OR_NOTAN@0:NOR@0:PMOS-4@2_B is floating.
WARNING: Node I2C_SUBM@0:BUFF_8BI@0:FFD_CLRN@5:OR_NOTAN@1:NOR@0:PMOS-4@2_B is floating.
WARNING: Node I2C_SUBM@0:BUFF_8BI@0:FFD_CLRN@6:CLK_NOSO@0:NOR@0:PMOS-4@2_B is floating.
WARNING: Node I2C_SUBM@0:BUFF_8BI@0:FFD_CLRN@6:CLK_NOSO@0:NOR@1:PMOS-4@2_B is floating.
WARNING: Node I2C_SUBM@0:BUFF_8BI@0:FFD_CLRN@6:NAND@0:PMOS-4@1_B is floating.
WARNING: Node I2C_SUBM@0:BUFF_8BI@0:FFD_CLRN@6:NAND@1:PMOS-4@1_B is floating.
WARNING: Node I2C_SUBM@0:BUFF_8BI@0:FFD_CLRN@6:OR_NOTAN@0:NOR@0:PMOS-4@2_B is floating.
WARNING: Node I2C_SUBM@0:BUFF_8BI@0:FFD_CLRN@6:OR_NOTAN@1:NOR@0:PMOS-4@2_B is floating.
WARNING: Node I2C_SUBM@0:BUFF_8BI@0:FFD_CLRN@7:CLK_NOSO@0:NOR@0:PMOS-4@2_B is floating.
WARNING: Node I2C_SUBM@0:BUFF_8BI@0:FFD_CLRN@7:CLK_NOSO@0:NOR@1:PMOS-4@2_B is floating.
WARNING: Node I2C_SUBM@0:BUFF_8BI@0:FFD_CLRN@7:NAND@0:PMOS-4@1_B is floating.
WARNING: Node I2C_SUBM@0:BUFF_8BI@0:FFD_CLRN@7:NAND@1:PMOS-4@1_B is floating.
WARNING: Node I2C_SUBM@0:BUFF_8BI@0:FFD_CLRN@7:OR_NOTAN@0:NOR@0:PMOS-4@2_B is floating.
WARNING: Node I2C_SUBM@0:BUFF_8BI@0:FFD_CLRN@7:OR_NOTAN@1:NOR@0:PMOS-4@2_B is floating.
WARNING: Node I2C_SUBM@0:WRITE_MO@0:AND@0:NAND@0:PMOS-4@1_B is floating.
WARNING: Node I2C_SUBM@0:WRITE_MO@0:AND@1:NAND@0:PMOS-4@1_B is floating.
WARNING: Node I2C_SUBM@0:WRITE_MO@0:AND@2:NAND@0:PMOS-4@1_B is floating.
WARNING: Node I2C_SUBM@0:WRITE_MO@0:FFD_CLRN@1:CLK_NOSO@0:NOR@0:PMOS-4@2_B is floating.
WARNING: Node I2C_SUBM@0:WRITE_MO@0:FFD_CLRN@1:CLK_NOSO@0:NOR@1:PMOS-4@2_B is floating.
WARNING: Node I2C_SUBM@0:WRITE_MO@0:FFD_CLRN@1:NAND@0:PMOS-4@1_B is floating.
WARNING: Node I2C_SUBM@0:WRITE_MO@0:FFD_CLRN@1:NAND@1:PMOS-4@1_B is floating.
WARNING: Node I2C_SUBM@0:WRITE_MO@0:FFD_CLRN@1:OR_NOTAN@0:NOR@0:PMOS-4@2_B is floating.
WARNING: Node I2C_SUBM@0:WRITE_MO@0:FFD_CLRN@1:OR_NOTAN@1:NOR@0:PMOS-4@2_B is floating.
WARNING: Node I2C_SUBM@0:WRITE_MO@0:FFD_CLRN@2:CLK_NOSO@0:NOR@0:PMOS-4@2_B is floating.
WARNING: Node I2C_SUBM@0:WRITE_MO@0:FFD_CLRN@2:CLK_NOSO@0:NOR@1:PMOS-4@2_B is floating.
WARNING: Node I2C_SUBM@0:WRITE_MO@0:FFD_CLRN@2:NAND@0:PMOS-4@1_B is floating.
WARNING: Node I2C_SUBM@0:WRITE_MO@0:FFD_CLRN@2:NAND@1:PMOS-4@1_B is floating.
WARNING: Node I2C_SUBM@0:WRITE_MO@0:FFD_CLRN@2:OR_NOTAN@0:NOR@0:PMOS-4@2_B is floating.
WARNING: Node I2C_SUBM@0:WRITE_MO@0:FFD_CLRN@2:OR_NOTAN@1:NOR@0:PMOS-4@2_B is floating.
WARNING: Node I2C_SUBM@0:WRITE_MO@0:SR_PISO@0:FFD_CLRN@0:CLK_NOSO@0:NOR@0:PMOS-4@2_B is floating.
WARNING: Node I2C_SUBM@0:WRITE_MO@0:SR_PISO@0:FFD_CLRN@0:CLK_NOSO@0:NOR@1:PMOS-4@2_B is floating.
WARNING: Node I2C_SUBM@0:WRITE_MO@0:SR_PISO@0:FFD_CLRN@0:NAND@0:PMOS-4@1_B is floating.
WARNING: Node I2C_SUBM@0:WRITE_MO@0:SR_PISO@0:FFD_CLRN@0:NAND@1:PMOS-4@1_B is floating.
WARNING: Node I2C_SUBM@0:WRITE_MO@0:SR_PISO@0:FFD_CLRN@0:OR_NOTAN@0:NOR@0:PMOS-4@2_B is floating.
WARNING: Node I2C_SUBM@0:WRITE_MO@0:SR_PISO@0:FFD_CLRN@0:OR_NOTAN@1:NOR@0:PMOS-4@2_B is floating.
WARNING: Node I2C_SUBM@0:WRITE_MO@0:SR_PISO@0:FFD_CLRN@1:CLK_NOSO@0:NOR@0:PMOS-4@2_B is floating.
WARNING: Node I2C_SUBM@0:WRITE_MO@0:SR_PISO@0:FFD_CLRN@1:CLK_NOSO@0:NOR@1:PMOS-4@2_B is floating.
WARNING: Node I2C_SUBM@0:WRITE_MO@0:SR_PISO@0:FFD_CLRN@1:NAND@0:PMOS-4@1_B is floating.
WARNING: Node I2C_SUBM@0:WRITE_MO@0:SR_PISO@0:FFD_CLRN@1:NAND@1:PMOS-4@1_B is floating.
WARNING: Node I2C_SUBM@0:WRITE_MO@0:SR_PISO@0:FFD_CLRN@1:OR_NOTAN@0:NOR@0:PMOS-4@2_B is floating.
WARNING: Node I2C_SUBM@0:WRITE_MO@0:SR_PISO@0:FFD_CLRN@1:OR_NOTAN@1:NOR@0:PMOS-4@2_B is floating.
WARNING: Node I2C_SUBM@0:WRITE_MO@0:SR_PISO@0:FFD_CLRN@2:CLK_NOSO@0:NOR@0:PMOS-4@2_B is floating.
WARNING: Node I2C_SUBM@0:WRITE_MO@0:SR_PISO@0:FFD_CLRN@2:CLK_NOSO@0:NOR@1:PMOS-4@2_B is floating.
WARNING: Node I2C_SUBM@0:WRITE_MO@0:SR_PISO@0:FFD_CLRN@2:NAND@0:PMOS-4@1_B is floating.
WARNING: Node I2C_SUBM@0:WRITE_MO@0:SR_PISO@0:FFD_CLRN@2:NAND@1:PMOS-4@1_B is floating.
WARNING: Node I2C_SUBM@0:WRITE_MO@0:SR_PISO@0:FFD_CLRN@2:OR_NOTAN@0:NOR@0:PMOS-4@2_B is floating.
WARNING: Node I2C_SUBM@0:WRITE_MO@0:SR_PISO@0:FFD_CLRN@2:OR_NOTAN@1:NOR@0:PMOS-4@2_B is floating.
WARNING: Node I2C_SUBM@0:WRITE_MO@0:SR_PISO@0:FFD_CLRN@3:CLK_NOSO@0:NOR@0:PMOS-4@2_B is floating.
WARNING: Node I2C_SUBM@0:WRITE_MO@0:SR_PISO@0:FFD_CLRN@3:CLK_NOSO@0:NOR@1:PMOS-4@2_B is floating.
WARNING: Node I2C_SUBM@0:WRITE_MO@0:SR_PISO@0:FFD_CLRN@3:NAND@0:PMOS-4@1_B is floating.
WARNING: Node I2C_SUBM@0:WRITE_MO@0:SR_PISO@0:FFD_CLRN@3:NAND@1:PMOS-4@1_B is floating.
WARNING: Node I2C_SUBM@0:WRITE_MO@0:SR_PISO@0:FFD_CLRN@3:OR_NOTAN@0:NOR@0:PMOS-4@2_B is floating.
WARNING: Node I2C_SUBM@0:WRITE_MO@0:SR_PISO@0:FFD_CLRN@3:OR_NOTAN@1:NOR@0:PMOS-4@2_B is floating.
WARNING: Node I2C_SUBM@0:WRITE_MO@0:SR_PISO@0:FFD_CLRN@4:CLK_NOSO@0:NOR@0:PMOS-4@2_B is floating.
WARNING: Node I2C_SUBM@0:WRITE_MO@0:SR_PISO@0:FFD_CLRN@4:CLK_NOSO@0:NOR@1:PMOS-4@2_B is floating.
WARNING: Node I2C_SUBM@0:WRITE_MO@0:SR_PISO@0:FFD_CLRN@4:NAND@0:PMOS-4@1_B is floating.
WARNING: Node I2C_SUBM@0:WRITE_MO@0:SR_PISO@0:FFD_CLRN@4:NAND@1:PMOS-4@1_B is floating.
WARNING: Node I2C_SUBM@0:WRITE_MO@0:SR_PISO@0:FFD_CLRN@4:OR_NOTAN@0:NOR@0:PMOS-4@2_B is floating.
WARNING: Node I2C_SUBM@0:WRITE_MO@0:SR_PISO@0:FFD_CLRN@4:OR_NOTAN@1:NOR@0:PMOS-4@2_B is floating.
WARNING: Node I2C_SUBM@0:WRITE_MO@0:SR_PISO@0:FFD_CLRN@5:CLK_NOSO@0:NOR@0:PMOS-4@2_B is floating.
WARNING: Node I2C_SUBM@0:WRITE_MO@0:SR_PISO@0:FFD_CLRN@5:CLK_NOSO@0:NOR@1:PMOS-4@2_B is floating.
WARNING: Node I2C_SUBM@0:WRITE_MO@0:SR_PISO@0:FFD_CLRN@5:NAND@0:PMOS-4@1_B is floating.
WARNING: Node I2C_SUBM@0:WRITE_MO@0:SR_PISO@0:FFD_CLRN@5:NAND@1:PMOS-4@1_B is floating.
WARNING: Node I2C_SUBM@0:WRITE_MO@0:SR_PISO@0:FFD_CLRN@5:OR_NOTAN@0:NOR@0:PMOS-4@2_B is floating.
WARNING: Node I2C_SUBM@0:WRITE_MO@0:SR_PISO@0:FFD_CLRN@5:OR_NOTAN@1:NOR@0:PMOS-4@2_B is floating.
WARNING: Node I2C_SUBM@0:WRITE_MO@0:SR_PISO@0:FFD_CLRN@6:CLK_NOSO@0:NOR@0:PMOS-4@2_B is floating.
WARNING: Node I2C_SUBM@0:WRITE_MO@0:SR_PISO@0:FFD_CLRN@6:CLK_NOSO@0:NOR@1:PMOS-4@2_B is floating.
WARNING: Node I2C_SUBM@0:WRITE_MO@0:SR_PISO@0:FFD_CLRN@6:NAND@0:PMOS-4@1_B is floating.
WARNING: Node I2C_SUBM@0:WRITE_MO@0:SR_PISO@0:FFD_CLRN@6:NAND@1:PMOS-4@1_B is floating.
WARNING: Node I2C_SUBM@0:WRITE_MO@0:SR_PISO@0:FFD_CLRN@6:OR_NOTAN@0:NOR@0:PMOS-4@2_B is floating.
WARNING: Node I2C_SUBM@0:WRITE_MO@0:SR_PISO@0:FFD_CLRN@6:OR_NOTAN@1:NOR@0:PMOS-4@2_B is floating.
WARNING: Node I2C_SUBM@0:WRITE_MO@0:SR_PISO@0:FFD_CLRN@7:CLK_NOSO@0:NOR@0:PMOS-4@2_B is floating.
WARNING: Node I2C_SUBM@0:WRITE_MO@0:SR_PISO@0:FFD_CLRN@7:CLK_NOSO@0:NOR@1:PMOS-4@2_B is floating.
WARNING: Node I2C_SUBM@0:WRITE_MO@0:SR_PISO@0:FFD_CLRN@7:NAND@0:PMOS-4@1_B is floating.
WARNING: Node I2C_SUBM@0:WRITE_MO@0:SR_PISO@0:FFD_CLRN@7:NAND@1:PMOS-4@1_B is floating.
WARNING: Node I2C_SUBM@0:WRITE_MO@0:SR_PISO@0:FFD_CLRN@7:OR_NOTAN@0:NOR@0:PMOS-4@2_B is floating.
WARNING: Node I2C_SUBM@0:WRITE_MO@0:SR_PISO@0:FFD_CLRN@7:OR_NOTAN@1:NOR@0:PMOS-4@2_B is floating.
WARNING: Node I2C_SUBM@0:WRITE_MO@0:SR_PISO@0:FFD_CLRN@8:CLK_NOSO@0:NOR@0:PMOS-4@2_B is floating.
WARNING: Node I2C_SUBM@0:WRITE_MO@0:SR_PISO@0:FFD_CLRN@8:CLK_NOSO@0:NOR@1:PMOS-4@2_B is floating.
WARNING: Node I2C_SUBM@0:WRITE_MO@0:SR_PISO@0:FFD_CLRN@8:NAND@0:PMOS-4@1_B is floating.
WARNING: Node I2C_SUBM@0:WRITE_MO@0:SR_PISO@0:FFD_CLRN@8:NAND@1:PMOS-4@1_B is floating.
WARNING: Node I2C_SUBM@0:WRITE_MO@0:SR_PISO@0:FFD_CLRN@8:OR_NOTAN@0:NOR@0:PMOS-4@2_B is floating.
WARNING: Node I2C_SUBM@0:WRITE_MO@0:SR_PISO@0:FFD_CLRN@8:OR_NOTAN@1:NOR@0:PMOS-4@2_B is floating.
WARNING: Node I2C_SUBM@0:WRITE_MO@0:SR_PISO@0:FFD_CLRN@9:CLK_NOSO@0:NOR@0:PMOS-4@2_B is floating.
WARNING: Node I2C_SUBM@0:WRITE_MO@0:SR_PISO@0:FFD_CLRN@9:CLK_NOSO@0:NOR@1:PMOS-4@2_B is floating.
WARNING: Node I2C_SUBM@0:WRITE_MO@0:SR_PISO@0:FFD_CLRN@9:NAND@0:PMOS-4@1_B is floating.
WARNING: Node I2C_SUBM@0:WRITE_MO@0:SR_PISO@0:FFD_CLRN@9:NAND@1:PMOS-4@1_B is floating.
WARNING: Node I2C_SUBM@0:WRITE_MO@0:SR_PISO@0:FFD_CLRN@9:OR_NOTAN@0:NOR@0:PMOS-4@2_B is floating.
WARNING: Node I2C_SUBM@0:WRITE_MO@0:SR_PISO@0:FFD_CLRN@9:OR_NOTAN@1:NOR@0:PMOS-4@2_B is floating.
WARNING: Node I2C_SUBM@0:WRITE_MO@0:SR_PISO@0:FFD_CLRN@10:CLK_NOSO@0:NOR@0:PMOS-4@2_B is floating.
WARNING: Node I2C_SUBM@0:WRITE_MO@0:SR_PISO@0:FFD_CLRN@10:CLK_NOSO@0:NOR@1:PMOS-4@2_B is floating.
WARNING: Node I2C_SUBM@0:WRITE_MO@0:SR_PISO@0:FFD_CLRN@10:NAND@0:PMOS-4@1_B is floating.
WARNING: Node I2C_SUBM@0:WRITE_MO@0:SR_PISO@0:FFD_CLRN@10:NAND@1:PMOS-4@1_B is floating.
WARNING: Node I2C_SUBM@0:WRITE_MO@0:SR_PISO@0:FFD_CLRN@10:OR_NOTAN@0:NOR@0:PMOS-4@2_B is floating.
WARNING: Node I2C_SUBM@0:WRITE_MO@0:SR_PISO@0:FFD_CLRN@10:OR_NOTAN@1:NOR@0:PMOS-4@2_B is floating.
WARNING: Node I2C_SUBM@0:WRITE_MO@0:SR_PISO@0:FFD_CLRN@11:CLK_NOSO@0:NOR@0:PMOS-4@2_B is floating.
WARNING: Node I2C_SUBM@0:WRITE_MO@0:SR_PISO@0:FFD_CLRN@11:CLK_NOSO@0:NOR@1:PMOS-4@2_B is floating.
WARNING: Node I2C_SUBM@0:WRITE_MO@0:SR_PISO@0:FFD_CLRN@11:NAND@0:PMOS-4@1_B is floating.
WARNING: Node I2C_SUBM@0:WRITE_MO@0:SR_PISO@0:FFD_CLRN@11:NAND@1:PMOS-4@1_B is floating.
WARNING: Node I2C_SUBM@0:WRITE_MO@0:SR_PISO@0:FFD_CLRN@11:OR_NOTAN@0:NOR@0:PMOS-4@2_B is floating.
WARNING: Node I2C_SUBM@0:WRITE_MO@0:SR_PISO@0:FFD_CLRN@11:OR_NOTAN@1:NOR@0:PMOS-4@2_B is floating.
WARNING: Node I2C_SUBM@0:WRITE_MO@0:SR_PISO@0:FFD_CLRN@12:CLK_NOSO@0:NOR@0:PMOS-4@2_B is floating.
WARNING: Node I2C_SUBM@0:WRITE_MO@0:SR_PISO@0:FFD_CLRN@12:CLK_NOSO@0:NOR@1:PMOS-4@2_B is floating.
WARNING: Node I2C_SUBM@0:WRITE_MO@0:SR_PISO@0:FFD_CLRN@12:NAND@0:PMOS-4@1_B is floating.
WARNING: Node I2C_SUBM@0:WRITE_MO@0:SR_PISO@0:FFD_CLRN@12:NAND@1:PMOS-4@1_B is floating.
WARNING: Node I2C_SUBM@0:WRITE_MO@0:SR_PISO@0:FFD_CLRN@12:OR_NOTAN@0:NOR@0:PMOS-4@2_B is floating.
WARNING: Node I2C_SUBM@0:WRITE_MO@0:SR_PISO@0:FFD_CLRN@12:OR_NOTAN@1:NOR@0:PMOS-4@2_B is floating.
WARNING: Node I2C_SUBM@0:WRITE_MO@0:SR_PISO@0:FFD_CLRN@13:CLK_NOSO@0:NOR@0:PMOS-4@2_B is floating.
WARNING: Node I2C_SUBM@0:WRITE_MO@0:SR_PISO@0:FFD_CLRN@13:CLK_NOSO@0:NOR@1:PMOS-4@2_B is floating.
WARNING: Node I2C_SUBM@0:WRITE_MO@0:SR_PISO@0:FFD_CLRN@13:NAND@0:PMOS-4@1_B is floating.
WARNING: Node I2C_SUBM@0:WRITE_MO@0:SR_PISO@0:FFD_CLRN@13:NAND@1:PMOS-4@1_B is floating.
WARNING: Node I2C_SUBM@0:WRITE_MO@0:SR_PISO@0:FFD_CLRN@13:OR_NOTAN@0:NOR@0:PMOS-4@2_B is floating.
WARNING: Node I2C_SUBM@0:WRITE_MO@0:SR_PISO@0:FFD_CLRN@13:OR_NOTAN@1:NOR@0:PMOS-4@2_B is floating.
WARNING: Node I2C_SUBM@0:WRITE_MO@0:SR_PISO@0:FFD_CLRN@14:CLK_NOSO@0:NOR@0:PMOS-4@2_B is floating.
WARNING: Node I2C_SUBM@0:WRITE_MO@0:SR_PISO@0:FFD_CLRN@14:CLK_NOSO@0:NOR@1:PMOS-4@2_B is floating.
WARNING: Node I2C_SUBM@0:WRITE_MO@0:SR_PISO@0:FFD_CLRN@14:NAND@0:PMOS-4@1_B is floating.
WARNING: Node I2C_SUBM@0:WRITE_MO@0:SR_PISO@0:FFD_CLRN@14:NAND@1:PMOS-4@1_B is floating.
WARNING: Node I2C_SUBM@0:WRITE_MO@0:SR_PISO@0:FFD_CLRN@14:OR_NOTAN@0:NOR@0:PMOS-4@2_B is floating.
WARNING: Node I2C_SUBM@0:WRITE_MO@0:SR_PISO@0:FFD_CLRN@14:OR_NOTAN@1:NOR@0:PMOS-4@2_B is floating.
WARNING: Node I2C_SUBM@0:WRITE_MO@0:SR_PISO@0:FFD_CLRN@15:CLK_NOSO@0:NOR@0:PMOS-4@2_B is floating.
WARNING: Node I2C_SUBM@0:WRITE_MO@0:SR_PISO@0:FFD_CLRN@15:CLK_NOSO@0:NOR@1:PMOS-4@2_B is floating.
WARNING: Node I2C_SUBM@0:WRITE_MO@0:SR_PISO@0:FFD_CLRN@15:NAND@0:PMOS-4@1_B is floating.
WARNING: Node I2C_SUBM@0:WRITE_MO@0:SR_PISO@0:FFD_CLRN@15:NAND@1:PMOS-4@1_B is floating.
WARNING: Node I2C_SUBM@0:WRITE_MO@0:SR_PISO@0:FFD_CLRN@15:OR_NOTAN@0:NOR@0:PMOS-4@2_B is floating.
WARNING: Node I2C_SUBM@0:WRITE_MO@0:SR_PISO@0:FFD_CLRN@15:OR_NOTAN@1:NOR@0:PMOS-4@2_B is floating.
WARNING: Node I2C_SUBM@0:WRITE_MO@0:SR_PISO@0:FFD_CLRN@16:CLK_NOSO@0:NOR@0:PMOS-4@2_B is floating.
WARNING: Node I2C_SUBM@0:WRITE_MO@0:SR_PISO@0:FFD_CLRN@16:CLK_NOSO@0:NOR@1:PMOS-4@2_B is floating.
WARNING: Node I2C_SUBM@0:WRITE_MO@0:SR_PISO@0:FFD_CLRN@16:NAND@0:PMOS-4@1_B is floating.
WARNING: Node I2C_SUBM@0:WRITE_MO@0:SR_PISO@0:FFD_CLRN@16:NAND@1:PMOS-4@1_B is floating.
WARNING: Node I2C_SUBM@0:WRITE_MO@0:SR_PISO@0:FFD_CLRN@16:OR_NOTAN@0:NOR@0:PMOS-4@2_B is floating.
WARNING: Node I2C_SUBM@0:WRITE_MO@0:SR_PISO@0:FFD_CLRN@16:OR_NOTAN@1:NOR@0:PMOS-4@2_B is floating.
WARNING: Node I2C_SUBM@0:WRITE_MO@0:SR_PISO@0:NAND@0:PMOS-4@1_B is floating.
WARNING: Node I2C_SUBM@0:WRITE_MO@0:SR_PISO@0:NAND@1:PMOS-4@1_B is floating.
WARNING: Node I2C_SUBM@0:WRITE_MO@0:SR_PISO@0:NAND@2:PMOS-4@1_B is floating.
WARNING: Node I2C_SUBM@0:WRITE_MO@0:SR_PISO@0:NAND@3:PMOS-4@1_B is floating.
WARNING: Node I2C_SUBM@0:WRITE_MO@0:SR_PISO@0:NAND@4:PMOS-4@1_B is floating.
WARNING: Node I2C_SUBM@0:WRITE_MO@0:SR_PISO@0:NAND@5:PMOS-4@1_B is floating.
WARNING: Node I2C_SUBM@0:WRITE_MO@0:SR_PISO@0:NAND@6:PMOS-4@1_B is floating.
WARNING: Node I2C_SUBM@0:WRITE_MO@0:SR_PISO@0:NAND@7:PMOS-4@1_B is floating.
WARNING: Node I2C_SUBM@0:WRITE_MO@0:SR_PISO@0:NAND@8:PMOS-4@1_B is floating.
WARNING: Node I2C_SUBM@0:WRITE_MO@0:SR_PISO@0:NAND@9:PMOS-4@1_B is floating.
WARNING: Node I2C_SUBM@0:WRITE_MO@0:SR_PISO@0:NAND@10:PMOS-4@1_B is floating.
WARNING: Node I2C_SUBM@0:WRITE_MO@0:SR_PISO@0:NAND@11:PMOS-4@1_B is floating.
WARNING: Node I2C_SUBM@0:WRITE_MO@0:SR_PISO@0:NAND@12:PMOS-4@1_B is floating.
WARNING: Node I2C_SUBM@0:WRITE_MO@0:SR_PISO@0:NAND@13:PMOS-4@1_B is floating.
WARNING: Node I2C_SUBM@0:WRITE_MO@0:SR_PISO@0:NAND@14:PMOS-4@1_B is floating.
WARNING: Node I2C_SUBM@0:WRITE_MO@0:SR_PISO@0:NAND@15:PMOS-4@1_B is floating.
WARNING: Node I2C_SUBM@0:WRITE_MO@0:SR_PISO@0:NAND@16:PMOS-4@1_B is floating.
WARNING: Node SS_DETEC@0:NMOS-4@0_B is floating.
WARNING: Node NET@9 is floating.
WARNING: Node SS_DETEC@0:NMOS-4@1_B is floating.
WARNING: Node SS_DETEC@0:FFD_CLRN@0:CLK_NOSO@0:NOR@0:PMOS-4@2_B is floating.
WARNING: Node SS_DETEC@0:FFD_CLRN@0:CLK_NOSO@0:NOR@1:PMOS-4@2_B is floating.
WARNING: Node SS_DETEC@0:FFD_CLRN@0:NAND@0:PMOS-4@1_B is floating.
WARNING: Node SS_DETEC@0:FFD_CLRN@0:NAND@1:PMOS-4@1_B is floating.
WARNING: Node SS_DETEC@0:FFD_CLRN@0:OR_NOTAN@0:NOR@0:PMOS-4@2_B is floating.
WARNING: Node SS_DETEC@0:FFD_CLRN@0:OR_NOTAN@1:NOR@0:PMOS-4@2_B is floating.
WARNING: Node SS_DETEC@0:FFD_CLRN@1:CLK_NOSO@0:NOR@0:PMOS-4@2_B is floating.
WARNING: Node SS_DETEC@0:FFD_CLRN@1:CLK_NOSO@0:NOR@1:PMOS-4@2_B is floating.
WARNING: Node SS_DETEC@0:FFD_CLRN@1:NAND@0:PMOS-4@1_B is floating.
WARNING: Node SS_DETEC@0:FFD_CLRN@1:NAND@1:PMOS-4@1_B is floating.
WARNING: Node SS_DETEC@0:FFD_CLRN@1:OR_NOTAN@0:NOR@0:PMOS-4@2_B is floating.
WARNING: Node SS_DETEC@0:FFD_CLRN@1:OR_NOTAN@1:NOR@0:PMOS-4@2_B is floating.

WARNING: Less than two connections to node I2C_SUBM@0:AND@0:NAND@0:PMOS-4@1_B.  This node is used by M:I2C_SUBM@0:AND@0:NAND@0:PMOS-4@1.
WARNING: Less than two connections to node I2C_SUBM@0:CLK_NOSO@0:NOR@0:PMOS-4@2_B.  This node is used by M:I2C_SUBM@0:CLK_NOSO@0:NOR@0:PMOS-4@2.
WARNING: Less than two connections to node I2C_SUBM@0:CLK_NOSO@0:NOR@1:PMOS-4@2_B.  This node is used by M:I2C_SUBM@0:CLK_NOSO@0:NOR@1:PMOS-4@2.
WARNING: Less than two connections to node I2C_SUBM@0:COUNTER_@0:_3B_NAND@0:NAND@0:PMOS-4@1_B.  This node is used by M:I2C_SUBM@0:COUNTER_@0:_3B_NAND@0:NAND@0:PMOS-4@1.
WARNING: Less than two connections to node I2C_SUBM@0:COUNTER_@0:_3B_NAND@0:NAND@1:PMOS-4@1_B.  This node is used by M:I2C_SUBM@0:COUNTER_@0:_3B_NAND@0:NAND@1:PMOS-4@1.
WARNING: Less than two connections to node I2C_SUBM@0:COUNTER_@0:_3B_NAND@0:NAND@2:PMOS-4@1_B.  This node is used by M:I2C_SUBM@0:COUNTER_@0:_3B_NAND@0:NAND@2:PMOS-4@1.
WARNING: Less than two connections to node I2C_SUBM@0:COUNTER_@0:_3B_NAND@0:NAND@3:PMOS-4@1_B.  This node is used by M:I2C_SUBM@0:COUNTER_@0:_3B_NAND@0:NAND@3:PMOS-4@1.
WARNING: Less than two connections to node I2C_SUBM@0:COUNTER_@0:_3B_NAND@0:NOR@0:PMOS-4@2_B.  This node is used by M:I2C_SUBM@0:COUNTER_@0:_3B_NAND@0:NOR@0:PMOS-4@2.
WARNING: Less than two connections to node I2C_SUBM@0:COUNTER_@0:_3B_COUNT@0:FFD_CLRN@0:CLK_NOSO@0:NOR@0:PMOS-4@2_B.  This node is used by M:I2C_SUBM@0:COUNTER_@0:_3B_COUNT@0:FFD_CLRN@0:CLK_NOSO@0:NOR@0:PMOS-4@2.
WARNING: Less than two connections to node I2C_SUBM@0:COUNTER_@0:_3B_COUNT@0:FFD_CLRN@0:CLK_NOSO@0:NOR@1:PMOS-4@2_B.  This node is used by M:I2C_SUBM@0:COUNTER_@0:_3B_COUNT@0:FFD_CLRN@0:CLK_NOSO@0:NOR@1:PMOS-4@2.
WARNING: Less than two connections to node I2C_SUBM@0:COUNTER_@0:_3B_COUNT@0:FFD_CLRN@0:NAND@0:PMOS-4@1_B.  This node is used by M:I2C_SUBM@0:COUNTER_@0:_3B_COUNT@0:FFD_CLRN@0:NAND@0:PMOS-4@1.
WARNING: Less than two connections to node I2C_SUBM@0:COUNTER_@0:_3B_COUNT@0:FFD_CLRN@0:NAND@1:PMOS-4@1_B.  This node is used by M:I2C_SUBM@0:COUNTER_@0:_3B_COUNT@0:FFD_CLRN@0:NAND@1:PMOS-4@1.
WARNING: Less than two connections to node I2C_SUBM@0:COUNTER_@0:_3B_COUNT@0:FFD_CLRN@0:OR_NOTAN@0:NOR@0:PMOS-4@2_B.  This node is used by M:I2C_SUBM@0:COUNTER_@0:_3B_COUNT@0:FFD_CLRN@0:OR_NOTAN@0:NOR@0:PMOS-4@2.
WARNING: Less than two connections to node I2C_SUBM@0:COUNTER_@0:_3B_COUNT@0:FFD_CLRN@0:OR_NOTAN@1:NOR@0:PMOS-4@2_B.  This node is used by M:I2C_SUBM@0:COUNTER_@0:_3B_COUNT@0:FFD_CLRN@0:OR_NOTAN@1:NOR@0:PMOS-4@2.
WARNING: Less than two connections to node I2C_SUBM@0:COUNTER_@0:_3B_COUNT@0:FFD_CLRN@1:CLK_NOSO@0:NOR@0:PMOS-4@2_B.  This node is used by M:I2C_SUBM@0:COUNTER_@0:_3B_COUNT@0:FFD_CLRN@1:CLK_NOSO@0:NOR@0:PMOS-4@2.
WARNING: Less than two connections to node I2C_SUBM@0:COUNTER_@0:_3B_COUNT@0:FFD_CLRN@1:CLK_NOSO@0:NOR@1:PMOS-4@2_B.  This node is used by M:I2C_SUBM@0:COUNTER_@0:_3B_COUNT@0:FFD_CLRN@1:CLK_NOSO@0:NOR@1:PMOS-4@2.
WARNING: Less than two connections to node I2C_SUBM@0:COUNTER_@0:_3B_COUNT@0:FFD_CLRN@1:NAND@0:PMOS-4@1_B.  This node is used by M:I2C_SUBM@0:COUNTER_@0:_3B_COUNT@0:FFD_CLRN@1:NAND@0:PMOS-4@1.
WARNING: Less than two connections to node I2C_SUBM@0:COUNTER_@0:_3B_COUNT@0:FFD_CLRN@1:NAND@1:PMOS-4@1_B.  This node is used by M:I2C_SUBM@0:COUNTER_@0:_3B_COUNT@0:FFD_CLRN@1:NAND@1:PMOS-4@1.
WARNING: Less than two connections to node I2C_SUBM@0:COUNTER_@0:_3B_COUNT@0:FFD_CLRN@1:OR_NOTAN@0:NOR@0:PMOS-4@2_B.  This node is used by M:I2C_SUBM@0:COUNTER_@0:_3B_COUNT@0:FFD_CLRN@1:OR_NOTAN@0:NOR@0:PMOS-4@2.
WARNING: Less than two connections to node I2C_SUBM@0:COUNTER_@0:_3B_COUNT@0:FFD_CLRN@1:OR_NOTAN@1:NOR@0:PMOS-4@2_B.  This node is used by M:I2C_SUBM@0:COUNTER_@0:_3B_COUNT@0:FFD_CLRN@1:OR_NOTAN@1:NOR@0:PMOS-4@2.
WARNING: Less than two connections to node I2C_SUBM@0:COUNTER_@0:_3B_COUNT@0:FFD_CLRN@2:CLK_NOSO@0:NOR@0:PMOS-4@2_B.  This node is used by M:I2C_SUBM@0:COUNTER_@0:_3B_COUNT@0:FFD_CLRN@2:CLK_NOSO@0:NOR@0:PMOS-4@2.
WARNING: Less than two connections to node I2C_SUBM@0:COUNTER_@0:_3B_COUNT@0:FFD_CLRN@2:CLK_NOSO@0:NOR@1:PMOS-4@2_B.  This node is used by M:I2C_SUBM@0:COUNTER_@0:_3B_COUNT@0:FFD_CLRN@2:CLK_NOSO@0:NOR@1:PMOS-4@2.
WARNING: Less than two connections to node I2C_SUBM@0:COUNTER_@0:_3B_COUNT@0:FFD_CLRN@2:NAND@0:PMOS-4@1_B.  This node is used by M:I2C_SUBM@0:COUNTER_@0:_3B_COUNT@0:FFD_CLRN@2:NAND@0:PMOS-4@1.
WARNING: Less than two connections to node I2C_SUBM@0:COUNTER_@0:_3B_COUNT@0:FFD_CLRN@2:NAND@1:PMOS-4@1_B.  This node is used by M:I2C_SUBM@0:COUNTER_@0:_3B_COUNT@0:FFD_CLRN@2:NAND@1:PMOS-4@1.
WARNING: Less than two connections to node I2C_SUBM@0:COUNTER_@0:_3B_COUNT@0:FFD_CLRN@2:OR_NOTAN@0:NOR@0:PMOS-4@2_B.  This node is used by M:I2C_SUBM@0:COUNTER_@0:_3B_COUNT@0:FFD_CLRN@2:OR_NOTAN@0:NOR@0:PMOS-4@2.
WARNING: Less than two connections to node I2C_SUBM@0:COUNTER_@0:_3B_COUNT@0:FFD_CLRN@2:OR_NOTAN@1:NOR@0:PMOS-4@2_B.  This node is used by M:I2C_SUBM@0:COUNTER_@0:_3B_COUNT@0:FFD_CLRN@2:OR_NOTAN@1:NOR@0:PMOS-4@2.
WARNING: Less than two connections to node I2C_SUBM@0:COUNTER_@0:_3B_COUNT@0:NAND@0:PMOS-4@1_B.  This node is used by M:I2C_SUBM@0:COUNTER_@0:_3B_COUNT@0:NAND@0:PMOS-4@1.
WARNING: Less than two connections to node I2C_SUBM@0:COUNTER_@0:_3B_COUNT@0:XOR@0:NAND@0:PMOS-4@1_B.  This node is used by M:I2C_SUBM@0:COUNTER_@0:_3B_COUNT@0:XOR@0:NAND@0:PMOS-4@1.
WARNING: Less than two connections to node I2C_SUBM@0:COUNTER_@0:_3B_COUNT@0:XOR@0:NAND@1:PMOS-4@1_B.  This node is used by M:I2C_SUBM@0:COUNTER_@0:_3B_COUNT@0:XOR@0:NAND@1:PMOS-4@1.
WARNING: Less than two connections to node I2C_SUBM@0:COUNTER_@0:_3B_COUNT@0:XOR@0:NAND@2:PMOS-4@1_B.  This node is used by M:I2C_SUBM@0:COUNTER_@0:_3B_COUNT@0:XOR@0:NAND@2:PMOS-4@1.
WARNING: Less than two connections to node I2C_SUBM@0:COUNTER_@0:_3B_COUNT@0:XOR@0:NAND@3:PMOS-4@1_B.  This node is used by M:I2C_SUBM@0:COUNTER_@0:_3B_COUNT@0:XOR@0:NAND@3:PMOS-4@1.
WARNING: Less than two connections to node I2C_SUBM@0:COUNTER_@0:_3B_COUNT@0:XOR@1:NAND@0:PMOS-4@1_B.  This node is used by M:I2C_SUBM@0:COUNTER_@0:_3B_COUNT@0:XOR@1:NAND@0:PMOS-4@1.
WARNING: Less than two connections to node I2C_SUBM@0:COUNTER_@0:_3B_COUNT@0:XOR@1:NAND@1:PMOS-4@1_B.  This node is used by M:I2C_SUBM@0:COUNTER_@0:_3B_COUNT@0:XOR@1:NAND@1:PMOS-4@1.
WARNING: Less than two connections to node I2C_SUBM@0:COUNTER_@0:_3B_COUNT@0:XOR@1:NAND@2:PMOS-4@1_B.  This node is used by M:I2C_SUBM@0:COUNTER_@0:_3B_COUNT@0:XOR@1:NAND@2:PMOS-4@1.
WARNING: Less than two connections to node I2C_SUBM@0:COUNTER_@0:_3B_COUNT@0:XOR@1:NAND@3:PMOS-4@1_B.  This node is used by M:I2C_SUBM@0:COUNTER_@0:_3B_COUNT@0:XOR@1:NAND@3:PMOS-4@1.
WARNING: Less than two connections to node I2C_SUBM@0:COUNTER_@0:FFD_CLRN@0:CLK_NOSO@0:NOR@0:PMOS-4@2_B.  This node is used by M:I2C_SUBM@0:COUNTER_@0:FFD_CLRN@0:CLK_NOSO@0:NOR@0:PMOS-4@2.
WARNING: Less than two connections to node I2C_SUBM@0:COUNTER_@0:FFD_CLRN@0:CLK_NOSO@0:NOR@1:PMOS-4@2_B.  This node is used by M:I2C_SUBM@0:COUNTER_@0:FFD_CLRN@0:CLK_NOSO@0:NOR@1:PMOS-4@2.
WARNING: Less than two connections to node I2C_SUBM@0:COUNTER_@0:FFD_CLRN@0:NAND@0:PMOS-4@1_B.  This node is used by M:I2C_SUBM@0:COUNTER_@0:FFD_CLRN@0:NAND@0:PMOS-4@1.
WARNING: Less than two connections to node I2C_SUBM@0:COUNTER_@0:FFD_CLRN@0:NAND@1:PMOS-4@1_B.  This node is used by M:I2C_SUBM@0:COUNTER_@0:FFD_CLRN@0:NAND@1:PMOS-4@1.
WARNING: Less than two connections to node I2C_SUBM@0:COUNTER_@0:FFD_CLRN@0:OR_NOTAN@0:NOR@0:PMOS-4@2_B.  This node is used by M:I2C_SUBM@0:COUNTER_@0:FFD_CLRN@0:OR_NOTAN@0:NOR@0:PMOS-4@2.
WARNING: Less than two connections to node I2C_SUBM@0:COUNTER_@0:FFD_CLRN@0:OR_NOTAN@1:NOR@0:PMOS-4@2_B.  This node is used by M:I2C_SUBM@0:COUNTER_@0:FFD_CLRN@0:OR_NOTAN@1:NOR@0:PMOS-4@2.
WARNING: Less than two connections to node I2C_SUBM@0:COUNTER_@0:FFD_CLRN@1:CLK_NOSO@0:NOR@0:PMOS-4@2_B.  This node is used by M:I2C_SUBM@0:COUNTER_@0:FFD_CLRN@1:CLK_NOSO@0:NOR@0:PMOS-4@2.
WARNING: Less than two connections to node I2C_SUBM@0:COUNTER_@0:FFD_CLRN@1:CLK_NOSO@0:NOR@1:PMOS-4@2_B.  This node is used by M:I2C_SUBM@0:COUNTER_@0:FFD_CLRN@1:CLK_NOSO@0:NOR@1:PMOS-4@2.
WARNING: Less than two connections to node I2C_SUBM@0:COUNTER_@0:FFD_CLRN@1:NAND@0:PMOS-4@1_B.  This node is used by M:I2C_SUBM@0:COUNTER_@0:FFD_CLRN@1:NAND@0:PMOS-4@1.
WARNING: Less than two connections to node I2C_SUBM@0:COUNTER_@0:FFD_CLRN@1:NAND@1:PMOS-4@1_B.  This node is used by M:I2C_SUBM@0:COUNTER_@0:FFD_CLRN@1:NAND@1:PMOS-4@1.
WARNING: Less than two connections to node I2C_SUBM@0:COUNTER_@0:FFD_CLRN@1:OR_NOTAN@0:NOR@0:PMOS-4@2_B.  This node is used by M:I2C_SUBM@0:COUNTER_@0:FFD_CLRN@1:OR_NOTAN@0:NOR@0:PMOS-4@2.
WARNING: Less than two connections to node I2C_SUBM@0:COUNTER_@0:FFD_CLRN@1:OR_NOTAN@1:NOR@0:PMOS-4@2_B.  This node is used by M:I2C_SUBM@0:COUNTER_@0:FFD_CLRN@1:OR_NOTAN@1:NOR@0:PMOS-4@2.
WARNING: Less than two connections to node I2C_SUBM@0:COUNTER_@0:NAND@1:PMOS-4@1_B.  This node is used by M:I2C_SUBM@0:COUNTER_@0:NAND@1:PMOS-4@1.
WARNING: Less than two connections to node I2C_SUBM@0:COUNTER_@0:NOR@0:PMOS-4@2_B.  This node is used by M:I2C_SUBM@0:COUNTER_@0:NOR@0:PMOS-4@2.
WARNING: Less than two connections to node I2C_SUBM@0:COUNTER_@0:NOR@1:PMOS-4@2_B.  This node is used by M:I2C_SUBM@0:COUNTER_@0:NOR@1:PMOS-4@2.
WARNING: Less than two connections to node I2C_SUBM@0:COUNTER_@0:SET_RESE@0:NOR@0:PMOS-4@2_B.  This node is used by M:I2C_SUBM@0:COUNTER_@0:SET_RESE@0:NOR@0:PMOS-4@2.
WARNING: Less than two connections to node I2C_SUBM@0:COUNTER_@0:SET_RESE@0:NOR@1:PMOS-4@2_B.  This node is used by M:I2C_SUBM@0:COUNTER_@0:SET_RESE@0:NOR@1:PMOS-4@2.
WARNING: Less than two connections to node I2C_SUBM@0:COUNTER_@0:SET_RESE@1:NOR@0:PMOS-4@2_B.  This node is used by M:I2C_SUBM@0:COUNTER_@0:SET_RESE@1:NOR@0:PMOS-4@2.
WARNING: Less than two connections to node I2C_SUBM@0:COUNTER_@0:SET_RESE@1:NOR@1:PMOS-4@2_B.  This node is used by M:I2C_SUBM@0:COUNTER_@0:SET_RESE@1:NOR@1:PMOS-4@2.
WARNING: Less than two connections to node I2C_SUBM@0:FFD_CLRN@0:CLK_NOSO@0:NOR@0:PMOS-4@2_B.  This node is used by M:I2C_SUBM@0:FFD_CLRN@0:CLK_NOSO@0:NOR@0:PMOS-4@2.
WARNING: Less than two connections to node I2C_SUBM@0:FFD_CLRN@0:CLK_NOSO@0:NOR@1:PMOS-4@2_B.  This node is used by M:I2C_SUBM@0:FFD_CLRN@0:CLK_NOSO@0:NOR@1:PMOS-4@2.
WARNING: Less than two connections to node I2C_SUBM@0:FFD_CLRN@0:NAND@0:PMOS-4@1_B.  This node is used by M:I2C_SUBM@0:FFD_CLRN@0:NAND@0:PMOS-4@1.
WARNING: Less than two connections to node I2C_SUBM@0:FFD_CLRN@0:NAND@1:PMOS-4@1_B.  This node is used by M:I2C_SUBM@0:FFD_CLRN@0:NAND@1:PMOS-4@1.
WARNING: Less than two connections to node I2C_SUBM@0:FFD_CLRN@0:OR_NOTAN@0:NOR@0:PMOS-4@2_B.  This node is used by M:I2C_SUBM@0:FFD_CLRN@0:OR_NOTAN@0:NOR@0:PMOS-4@2.
WARNING: Less than two connections to node I2C_SUBM@0:FFD_CLRN@0:OR_NOTAN@1:NOR@0:PMOS-4@2_B.  This node is used by M:I2C_SUBM@0:FFD_CLRN@0:OR_NOTAN@1:NOR@0:PMOS-4@2.
WARNING: Less than two connections to node I2C_SUBM@0:NOR@0:PMOS-4@2_B.  This node is used by M:I2C_SUBM@0:NOR@0:PMOS-4@2.
WARNING: Less than two connections to node I2C_SUBM@0:OR@0:NOR@0:PMOS-4@2_B.  This node is used by M:I2C_SUBM@0:OR@0:NOR@0:PMOS-4@2.
WARNING: Less than two connections to node I2C_SUBM@0:OR@1:NOR@0:PMOS-4@2_B.  This node is used by M:I2C_SUBM@0:OR@1:NOR@0:PMOS-4@2.
WARNING: Less than two connections to node I2C_SUBM@0:OR@2:NOR@0:PMOS-4@2_B.  This node is used by M:I2C_SUBM@0:OR@2:NOR@0:PMOS-4@2.
WARNING: Less than two connections to node I2C_SUBM@0:OR@4:NOR@0:PMOS-4@2_B.  This node is used by M:I2C_SUBM@0:OR@4:NOR@0:PMOS-4@2.
WARNING: Less than two connections to node I2C_SUBM@0:R_W_MODU@0:AND@0:NAND@0:PMOS-4@1_B.  This node is used by M:I2C_SUBM@0:R_W_MODU@0:AND@0:NAND@0:PMOS-4@1.
WARNING: Less than two connections to node I2C_SUBM@0:R_W_MODU@0:AND@1:NAND@0:PMOS-4@1_B.  This node is used by M:I2C_SUBM@0:R_W_MODU@0:AND@1:NAND@0:PMOS-4@1.
WARNING: Less than two connections to node I2C_SUBM@0:R_W_MODU@0:AND@2:NAND@0:PMOS-4@1_B.  This node is used by M:I2C_SUBM@0:R_W_MODU@0:AND@2:NAND@0:PMOS-4@1.
WARNING: Less than two connections to node I2C_SUBM@0:R_W_MODU@0:FFD_CLRN@0:CLK_NOSO@0:NOR@0:PMOS-4@2_B.  This node is used by M:I2C_SUBM@0:R_W_MODU@0:FFD_CLRN@0:CLK_NOSO@0:NOR@0:PMOS-4@2.
WARNING: Less than two connections to node I2C_SUBM@0:R_W_MODU@0:FFD_CLRN@0:CLK_NOSO@0:NOR@1:PMOS-4@2_B.  This node is used by M:I2C_SUBM@0:R_W_MODU@0:FFD_CLRN@0:CLK_NOSO@0:NOR@1:PMOS-4@2.
WARNING: Less than two connections to node I2C_SUBM@0:R_W_MODU@0:FFD_CLRN@0:NAND@0:PMOS-4@1_B.  This node is used by M:I2C_SUBM@0:R_W_MODU@0:FFD_CLRN@0:NAND@0:PMOS-4@1.
WARNING: Less than two connections to node I2C_SUBM@0:R_W_MODU@0:FFD_CLRN@0:NAND@1:PMOS-4@1_B.  This node is used by M:I2C_SUBM@0:R_W_MODU@0:FFD_CLRN@0:NAND@1:PMOS-4@1.
WARNING: Less than two connections to node I2C_SUBM@0:R_W_MODU@0:FFD_CLRN@0:OR_NOTAN@0:NOR@0:PMOS-4@2_B.  This node is used by M:I2C_SUBM@0:R_W_MODU@0:FFD_CLRN@0:OR_NOTAN@0:NOR@0:PMOS-4@2.
WARNING: Less than two connections to node I2C_SUBM@0:R_W_MODU@0:FFD_CLRN@0:OR_NOTAN@1:NOR@0:PMOS-4@2_B.  This node is used by M:I2C_SUBM@0:R_W_MODU@0:FFD_CLRN@0:OR_NOTAN@1:NOR@0:PMOS-4@2.
WARNING: Less than two connections to node I2C_SUBM@0:R_W_MODU@0:NOR@0:PMOS-4@2_B.  This node is used by M:I2C_SUBM@0:R_W_MODU@0:NOR@0:PMOS-4@2.
WARNING: Less than two connections to node I2C_SUBM@0:SR_SIPO_@0:FFD_CLRN@0:CLK_NOSO@0:NOR@0:PMOS-4@2_B.  This node is used by M:I2C_SUBM@0:SR_SIPO_@0:FFD_CLRN@0:CLK_NOSO@0:NOR@0:PMOS-4@2.
WARNING: Less than two connections to node I2C_SUBM@0:SR_SIPO_@0:FFD_CLRN@0:CLK_NOSO@0:NOR@1:PMOS-4@2_B.  This node is used by M:I2C_SUBM@0:SR_SIPO_@0:FFD_CLRN@0:CLK_NOSO@0:NOR@1:PMOS-4@2.
WARNING: Less than two connections to node I2C_SUBM@0:SR_SIPO_@0:FFD_CLRN@0:NAND@0:PMOS-4@1_B.  This node is used by M:I2C_SUBM@0:SR_SIPO_@0:FFD_CLRN@0:NAND@0:PMOS-4@1.
WARNING: Less than two connections to node I2C_SUBM@0:SR_SIPO_@0:FFD_CLRN@0:NAND@1:PMOS-4@1_B.  This node is used by M:I2C_SUBM@0:SR_SIPO_@0:FFD_CLRN@0:NAND@1:PMOS-4@1.
WARNING: Less than two connections to node I2C_SUBM@0:SR_SIPO_@0:FFD_CLRN@0:OR_NOTAN@0:NOR@0:PMOS-4@2_B.  This node is used by M:I2C_SUBM@0:SR_SIPO_@0:FFD_CLRN@0:OR_NOTAN@0:NOR@0:PMOS-4@2.
WARNING: Less than two connections to node I2C_SUBM@0:SR_SIPO_@0:FFD_CLRN@0:OR_NOTAN@1:NOR@0:PMOS-4@2_B.  This node is used by M:I2C_SUBM@0:SR_SIPO_@0:FFD_CLRN@0:OR_NOTAN@1:NOR@0:PMOS-4@2.
WARNING: Less than two connections to node I2C_SUBM@0:SR_SIPO_@0:FFD_CLRN@1:CLK_NOSO@0:NOR@0:PMOS-4@2_B.  This node is used by M:I2C_SUBM@0:SR_SIPO_@0:FFD_CLRN@1:CLK_NOSO@0:NOR@0:PMOS-4@2.
WARNING: Less than two connections to node I2C_SUBM@0:SR_SIPO_@0:FFD_CLRN@1:CLK_NOSO@0:NOR@1:PMOS-4@2_B.  This node is used by M:I2C_SUBM@0:SR_SIPO_@0:FFD_CLRN@1:CLK_NOSO@0:NOR@1:PMOS-4@2.
WARNING: Less than two connections to node I2C_SUBM@0:SR_SIPO_@0:FFD_CLRN@1:NAND@0:PMOS-4@1_B.  This node is used by M:I2C_SUBM@0:SR_SIPO_@0:FFD_CLRN@1:NAND@0:PMOS-4@1.
WARNING: Less than two connections to node I2C_SUBM@0:SR_SIPO_@0:FFD_CLRN@1:NAND@1:PMOS-4@1_B.  This node is used by M:I2C_SUBM@0:SR_SIPO_@0:FFD_CLRN@1:NAND@1:PMOS-4@1.
WARNING: Less than two connections to node I2C_SUBM@0:SR_SIPO_@0:FFD_CLRN@1:OR_NOTAN@0:NOR@0:PMOS-4@2_B.  This node is used by M:I2C_SUBM@0:SR_SIPO_@0:FFD_CLRN@1:OR_NOTAN@0:NOR@0:PMOS-4@2.
WARNING: Less than two connections to node I2C_SUBM@0:SR_SIPO_@0:FFD_CLRN@1:OR_NOTAN@1:NOR@0:PMOS-4@2_B.  This node is used by M:I2C_SUBM@0:SR_SIPO_@0:FFD_CLRN@1:OR_NOTAN@1:NOR@0:PMOS-4@2.
WARNING: Less than two connections to node I2C_SUBM@0:SR_SIPO_@0:FFD_CLRN@2:CLK_NOSO@0:NOR@0:PMOS-4@2_B.  This node is used by M:I2C_SUBM@0:SR_SIPO_@0:FFD_CLRN@2:CLK_NOSO@0:NOR@0:PMOS-4@2.
WARNING: Less than two connections to node I2C_SUBM@0:SR_SIPO_@0:FFD_CLRN@2:CLK_NOSO@0:NOR@1:PMOS-4@2_B.  This node is used by M:I2C_SUBM@0:SR_SIPO_@0:FFD_CLRN@2:CLK_NOSO@0:NOR@1:PMOS-4@2.
WARNING: Less than two connections to node I2C_SUBM@0:SR_SIPO_@0:FFD_CLRN@2:NAND@0:PMOS-4@1_B.  This node is used by M:I2C_SUBM@0:SR_SIPO_@0:FFD_CLRN@2:NAND@0:PMOS-4@1.
WARNING: Less than two connections to node I2C_SUBM@0:SR_SIPO_@0:FFD_CLRN@2:NAND@1:PMOS-4@1_B.  This node is used by M:I2C_SUBM@0:SR_SIPO_@0:FFD_CLRN@2:NAND@1:PMOS-4@1.
WARNING: Less than two connections to node I2C_SUBM@0:SR_SIPO_@0:FFD_CLRN@2:OR_NOTAN@0:NOR@0:PMOS-4@2_B.  This node is used by M:I2C_SUBM@0:SR_SIPO_@0:FFD_CLRN@2:OR_NOTAN@0:NOR@0:PMOS-4@2.
WARNING: Less than two connections to node I2C_SUBM@0:SR_SIPO_@0:FFD_CLRN@2:OR_NOTAN@1:NOR@0:PMOS-4@2_B.  This node is used by M:I2C_SUBM@0:SR_SIPO_@0:FFD_CLRN@2:OR_NOTAN@1:NOR@0:PMOS-4@2.
WARNING: Less than two connections to node I2C_SUBM@0:SR_SIPO_@0:FFD_CLRN@3:CLK_NOSO@0:NOR@0:PMOS-4@2_B.  This node is used by M:I2C_SUBM@0:SR_SIPO_@0:FFD_CLRN@3:CLK_NOSO@0:NOR@0:PMOS-4@2.
WARNING: Less than two connections to node I2C_SUBM@0:SR_SIPO_@0:FFD_CLRN@3:CLK_NOSO@0:NOR@1:PMOS-4@2_B.  This node is used by M:I2C_SUBM@0:SR_SIPO_@0:FFD_CLRN@3:CLK_NOSO@0:NOR@1:PMOS-4@2.
WARNING: Less than two connections to node I2C_SUBM@0:SR_SIPO_@0:FFD_CLRN@3:NAND@0:PMOS-4@1_B.  This node is used by M:I2C_SUBM@0:SR_SIPO_@0:FFD_CLRN@3:NAND@0:PMOS-4@1.
WARNING: Less than two connections to node I2C_SUBM@0:SR_SIPO_@0:FFD_CLRN@3:NAND@1:PMOS-4@1_B.  This node is used by M:I2C_SUBM@0:SR_SIPO_@0:FFD_CLRN@3:NAND@1:PMOS-4@1.
WARNING: Less than two connections to node I2C_SUBM@0:SR_SIPO_@0:FFD_CLRN@3:OR_NOTAN@0:NOR@0:PMOS-4@2_B.  This node is used by M:I2C_SUBM@0:SR_SIPO_@0:FFD_CLRN@3:OR_NOTAN@0:NOR@0:PMOS-4@2.
WARNING: Less than two connections to node I2C_SUBM@0:SR_SIPO_@0:FFD_CLRN@3:OR_NOTAN@1:NOR@0:PMOS-4@2_B.  This node is used by M:I2C_SUBM@0:SR_SIPO_@0:FFD_CLRN@3:OR_NOTAN@1:NOR@0:PMOS-4@2.
WARNING: Less than two connections to node I2C_SUBM@0:SR_SIPO_@0:FFD_CLRN@8:CLK_NOSO@0:NOR@0:PMOS-4@2_B.  This node is used by M:I2C_SUBM@0:SR_SIPO_@0:FFD_CLRN@8:CLK_NOSO@0:NOR@0:PMOS-4@2.
WARNING: Less than two connections to node I2C_SUBM@0:SR_SIPO_@0:FFD_CLRN@8:CLK_NOSO@0:NOR@1:PMOS-4@2_B.  This node is used by M:I2C_SUBM@0:SR_SIPO_@0:FFD_CLRN@8:CLK_NOSO@0:NOR@1:PMOS-4@2.
WARNING: Less than two connections to node I2C_SUBM@0:SR_SIPO_@0:FFD_CLRN@8:NAND@0:PMOS-4@1_B.  This node is used by M:I2C_SUBM@0:SR_SIPO_@0:FFD_CLRN@8:NAND@0:PMOS-4@1.
WARNING: Less than two connections to node I2C_SUBM@0:SR_SIPO_@0:FFD_CLRN@8:NAND@1:PMOS-4@1_B.  This node is used by M:I2C_SUBM@0:SR_SIPO_@0:FFD_CLRN@8:NAND@1:PMOS-4@1.
WARNING: Less than two connections to node I2C_SUBM@0:SR_SIPO_@0:FFD_CLRN@8:OR_NOTAN@0:NOR@0:PMOS-4@2_B.  This node is used by M:I2C_SUBM@0:SR_SIPO_@0:FFD_CLRN@8:OR_NOTAN@0:NOR@0:PMOS-4@2.
WARNING: Less than two connections to node I2C_SUBM@0:SR_SIPO_@0:FFD_CLRN@8:OR_NOTAN@1:NOR@0:PMOS-4@2_B.  This node is used by M:I2C_SUBM@0:SR_SIPO_@0:FFD_CLRN@8:OR_NOTAN@1:NOR@0:PMOS-4@2.
WARNING: Less than two connections to node I2C_SUBM@0:SR_SIPO_@0:FFD_CLRN@9:CLK_NOSO@0:NOR@0:PMOS-4@2_B.  This node is used by M:I2C_SUBM@0:SR_SIPO_@0:FFD_CLRN@9:CLK_NOSO@0:NOR@0:PMOS-4@2.
WARNING: Less than two connections to node I2C_SUBM@0:SR_SIPO_@0:FFD_CLRN@9:CLK_NOSO@0:NOR@1:PMOS-4@2_B.  This node is used by M:I2C_SUBM@0:SR_SIPO_@0:FFD_CLRN@9:CLK_NOSO@0:NOR@1:PMOS-4@2.
WARNING: Less than two connections to node I2C_SUBM@0:SR_SIPO_@0:FFD_CLRN@9:NAND@0:PMOS-4@1_B.  This node is used by M:I2C_SUBM@0:SR_SIPO_@0:FFD_CLRN@9:NAND@0:PMOS-4@1.
WARNING: Less than two connections to node I2C_SUBM@0:SR_SIPO_@0:FFD_CLRN@9:NAND@1:PMOS-4@1_B.  This node is used by M:I2C_SUBM@0:SR_SIPO_@0:FFD_CLRN@9:NAND@1:PMOS-4@1.
WARNING: Less than two connections to node I2C_SUBM@0:SR_SIPO_@0:FFD_CLRN@9:OR_NOTAN@0:NOR@0:PMOS-4@2_B.  This node is used by M:I2C_SUBM@0:SR_SIPO_@0:FFD_CLRN@9:OR_NOTAN@0:NOR@0:PMOS-4@2.
WARNING: Less than two connections to node I2C_SUBM@0:SR_SIPO_@0:FFD_CLRN@9:OR_NOTAN@1:NOR@0:PMOS-4@2_B.  This node is used by M:I2C_SUBM@0:SR_SIPO_@0:FFD_CLRN@9:OR_NOTAN@1:NOR@0:PMOS-4@2.
WARNING: Less than two connections to node I2C_SUBM@0:SR_SIPO_@0:FFD_CLRN@10:CLK_NOSO@0:NOR@0:PMOS-4@2_B.  This node is used by M:I2C_SUBM@0:SR_SIPO_@0:FFD_CLRN@10:CLK_NOSO@0:NOR@0:PMOS-4@2.
WARNING: Less than two connections to node I2C_SUBM@0:SR_SIPO_@0:FFD_CLRN@10:CLK_NOSO@0:NOR@1:PMOS-4@2_B.  This node is used by M:I2C_SUBM@0:SR_SIPO_@0:FFD_CLRN@10:CLK_NOSO@0:NOR@1:PMOS-4@2.
WARNING: Less than two connections to node I2C_SUBM@0:SR_SIPO_@0:FFD_CLRN@10:NAND@0:PMOS-4@1_B.  This node is used by M:I2C_SUBM@0:SR_SIPO_@0:FFD_CLRN@10:NAND@0:PMOS-4@1.
WARNING: Less than two connections to node I2C_SUBM@0:SR_SIPO_@0:FFD_CLRN@10:NAND@1:PMOS-4@1_B.  This node is used by M:I2C_SUBM@0:SR_SIPO_@0:FFD_CLRN@10:NAND@1:PMOS-4@1.
WARNING: Less than two connections to node I2C_SUBM@0:SR_SIPO_@0:FFD_CLRN@10:OR_NOTAN@0:NOR@0:PMOS-4@2_B.  This node is used by M:I2C_SUBM@0:SR_SIPO_@0:FFD_CLRN@10:OR_NOTAN@0:NOR@0:PMOS-4@2.
WARNING: Less than two connections to node I2C_SUBM@0:SR_SIPO_@0:FFD_CLRN@10:OR_NOTAN@1:NOR@0:PMOS-4@2_B.  This node is used by M:I2C_SUBM@0:SR_SIPO_@0:FFD_CLRN@10:OR_NOTAN@1:NOR@0:PMOS-4@2.
WARNING: Less than two connections to node I2C_SUBM@0:SR_SIPO_@0:FFD_CLRN@11:CLK_NOSO@0:NOR@0:PMOS-4@2_B.  This node is used by M:I2C_SUBM@0:SR_SIPO_@0:FFD_CLRN@11:CLK_NOSO@0:NOR@0:PMOS-4@2.
WARNING: Less than two connections to node I2C_SUBM@0:SR_SIPO_@0:FFD_CLRN@11:CLK_NOSO@0:NOR@1:PMOS-4@2_B.  This node is used by M:I2C_SUBM@0:SR_SIPO_@0:FFD_CLRN@11:CLK_NOSO@0:NOR@1:PMOS-4@2.
WARNING: Less than two connections to node I2C_SUBM@0:SR_SIPO_@0:FFD_CLRN@11:NAND@0:PMOS-4@1_B.  This node is used by M:I2C_SUBM@0:SR_SIPO_@0:FFD_CLRN@11:NAND@0:PMOS-4@1.
WARNING: Less than two connections to node I2C_SUBM@0:SR_SIPO_@0:FFD_CLRN@11:NAND@1:PMOS-4@1_B.  This node is used by M:I2C_SUBM@0:SR_SIPO_@0:FFD_CLRN@11:NAND@1:PMOS-4@1.
WARNING: Less than two connections to node I2C_SUBM@0:SR_SIPO_@0:FFD_CLRN@11:OR_NOTAN@0:NOR@0:PMOS-4@2_B.  This node is used by M:I2C_SUBM@0:SR_SIPO_@0:FFD_CLRN@11:OR_NOTAN@0:NOR@0:PMOS-4@2.
WARNING: Less than two connections to node I2C_SUBM@0:SR_SIPO_@0:FFD_CLRN@11:OR_NOTAN@1:NOR@0:PMOS-4@2_B.  This node is used by M:I2C_SUBM@0:SR_SIPO_@0:FFD_CLRN@11:OR_NOTAN@1:NOR@0:PMOS-4@2.
WARNING: Less than two connections to node I2C_SUBM@0:ADD_DETE@0:_14B_EQUA@0:_6B_AND@0:NAND@0:PMOS-4@1_B.  This node is used by M:I2C_SUBM@0:ADD_DETE@0:_14B_EQUA@0:_6B_AND@0:NAND@0:PMOS-4@1.
WARNING: Less than two connections to node I2C_SUBM@0:ADD_DETE@0:_14B_EQUA@0:_6B_AND@0:NAND@1:PMOS-4@1_B.  This node is used by M:I2C_SUBM@0:ADD_DETE@0:_14B_EQUA@0:_6B_AND@0:NAND@1:PMOS-4@1.
WARNING: Less than two connections to node I2C_SUBM@0:ADD_DETE@0:_14B_EQUA@0:_6B_AND@0:NAND@2:PMOS-4@1_B.  This node is used by M:I2C_SUBM@0:ADD_DETE@0:_14B_EQUA@0:_6B_AND@0:NAND@2:PMOS-4@1.
WARNING: Less than two connections to node I2C_SUBM@0:ADD_DETE@0:_14B_EQUA@0:_6B_AND@0:NAND@3:PMOS-4@1_B.  This node is used by M:I2C_SUBM@0:ADD_DETE@0:_14B_EQUA@0:_6B_AND@0:NAND@3:PMOS-4@1.
WARNING: Less than two connections to node I2C_SUBM@0:ADD_DETE@0:_14B_EQUA@0:_6B_AND@0:NOR@0:PMOS-4@2_B.  This node is used by M:I2C_SUBM@0:ADD_DETE@0:_14B_EQUA@0:_6B_AND@0:NOR@0:PMOS-4@2.
WARNING: Less than two connections to node I2C_SUBM@0:ADD_DETE@0:_14B_EQUA@0:AND@0:NAND@0:PMOS-4@1_B.  This node is used by M:I2C_SUBM@0:ADD_DETE@0:_14B_EQUA@0:AND@0:NAND@0:PMOS-4@1.
WARNING: Less than two connections to node I2C_SUBM@0:ADD_DETE@0:_14B_EQUA@0:NOR@0:PMOS-4@2_B.  This node is used by M:I2C_SUBM@0:ADD_DETE@0:_14B_EQUA@0:NOR@0:PMOS-4@2.
WARNING: Less than two connections to node I2C_SUBM@0:ADD_DETE@0:_14B_EQUA@0:NOR@1:PMOS-4@2_B.  This node is used by M:I2C_SUBM@0:ADD_DETE@0:_14B_EQUA@0:NOR@1:PMOS-4@2.
WARNING: Less than two connections to node I2C_SUBM@0:ADD_DETE@0:_14B_EQUA@0:NOR@2:PMOS-4@2_B.  This node is used by M:I2C_SUBM@0:ADD_DETE@0:_14B_EQUA@0:NOR@2:PMOS-4@2.
WARNING: Less than two connections to node I2C_SUBM@0:ADD_DETE@0:_14B_EQUA@0:XOR@0:NAND@0:PMOS-4@1_B.  This node is used by M:I2C_SUBM@0:ADD_DETE@0:_14B_EQUA@0:XOR@0:NAND@0:PMOS-4@1.
WARNING: Less than two connections to node I2C_SUBM@0:ADD_DETE@0:_14B_EQUA@0:XOR@0:NAND@1:PMOS-4@1_B.  This node is used by M:I2C_SUBM@0:ADD_DETE@0:_14B_EQUA@0:XOR@0:NAND@1:PMOS-4@1.
WARNING: Less than two connections to node I2C_SUBM@0:ADD_DETE@0:_14B_EQUA@0:XOR@0:NAND@2:PMOS-4@1_B.  This node is used by M:I2C_SUBM@0:ADD_DETE@0:_14B_EQUA@0:XOR@0:NAND@2:PMOS-4@1.
WARNING: Less than two connections to node I2C_SUBM@0:ADD_DETE@0:_14B_EQUA@0:XOR@0:NAND@3:PMOS-4@1_B.  This node is used by M:I2C_SUBM@0:ADD_DETE@0:_14B_EQUA@0:XOR@0:NAND@3:PMOS-4@1.
WARNING: Less than two connections to node I2C_SUBM@0:ADD_DETE@0:_14B_EQUA@0:XOR@1:NAND@0:PMOS-4@1_B.  This node is used by M:I2C_SUBM@0:ADD_DETE@0:_14B_EQUA@0:XOR@1:NAND@0:PMOS-4@1.
WARNING: Less than two connections to node I2C_SUBM@0:ADD_DETE@0:_14B_EQUA@0:XOR@1:NAND@1:PMOS-4@1_B.  This node is used by M:I2C_SUBM@0:ADD_DETE@0:_14B_EQUA@0:XOR@1:NAND@1:PMOS-4@1.
WARNING: Less than two connections to node I2C_SUBM@0:ADD_DETE@0:_14B_EQUA@0:XOR@1:NAND@2:PMOS-4@1_B.  This node is used by M:I2C_SUBM@0:ADD_DETE@0:_14B_EQUA@0:XOR@1:NAND@2:PMOS-4@1.
WARNING: Less than two connections to node I2C_SUBM@0:ADD_DETE@0:_14B_EQUA@0:XOR@1:NAND@3:PMOS-4@1_B.  This node is used by M:I2C_SUBM@0:ADD_DETE@0:_14B_EQUA@0:XOR@1:NAND@3:PMOS-4@1.
WARNING: Less than two connections to node I2C_SUBM@0:ADD_DETE@0:_14B_EQUA@0:XOR@2:NAND@0:PMOS-4@1_B.  This node is used by M:I2C_SUBM@0:ADD_DETE@0:_14B_EQUA@0:XOR@2:NAND@0:PMOS-4@1.
WARNING: Less than two connections to node I2C_SUBM@0:ADD_DETE@0:_14B_EQUA@0:XOR@2:NAND@1:PMOS-4@1_B.  This node is used by M:I2C_SUBM@0:ADD_DETE@0:_14B_EQUA@0:XOR@2:NAND@1:PMOS-4@1.
WARNING: Less than two connections to node I2C_SUBM@0:ADD_DETE@0:_14B_EQUA@0:XOR@2:NAND@2:PMOS-4@1_B.  This node is used by M:I2C_SUBM@0:ADD_DETE@0:_14B_EQUA@0:XOR@2:NAND@2:PMOS-4@1.
WARNING: Less than two connections to node I2C_SUBM@0:ADD_DETE@0:_14B_EQUA@0:XOR@2:NAND@3:PMOS-4@1_B.  This node is used by M:I2C_SUBM@0:ADD_DETE@0:_14B_EQUA@0:XOR@2:NAND@3:PMOS-4@1.
WARNING: Less than two connections to node I2C_SUBM@0:ADD_DETE@0:_14B_EQUA@0:XOR@3:NAND@0:PMOS-4@1_B.  This node is used by M:I2C_SUBM@0:ADD_DETE@0:_14B_EQUA@0:XOR@3:NAND@0:PMOS-4@1.
WARNING: Less than two connections to node I2C_SUBM@0:ADD_DETE@0:_14B_EQUA@0:XOR@3:NAND@1:PMOS-4@1_B.  This node is used by M:I2C_SUBM@0:ADD_DETE@0:_14B_EQUA@0:XOR@3:NAND@1:PMOS-4@1.
WARNING: Less than two connections to node I2C_SUBM@0:ADD_DETE@0:_14B_EQUA@0:XOR@3:NAND@2:PMOS-4@1_B.  This node is used by M:I2C_SUBM@0:ADD_DETE@0:_14B_EQUA@0:XOR@3:NAND@2:PMOS-4@1.
WARNING: Less than two connections to node I2C_SUBM@0:ADD_DETE@0:_14B_EQUA@0:XOR@3:NAND@3:PMOS-4@1_B.  This node is used by M:I2C_SUBM@0:ADD_DETE@0:_14B_EQUA@0:XOR@3:NAND@3:PMOS-4@1.
WARNING: Less than two connections to node I2C_SUBM@0:ADD_DETE@0:_14B_EQUA@0:XOR@4:NAND@0:PMOS-4@1_B.  This node is used by M:I2C_SUBM@0:ADD_DETE@0:_14B_EQUA@0:XOR@4:NAND@0:PMOS-4@1.
WARNING: Less than two connections to node I2C_SUBM@0:ADD_DETE@0:_14B_EQUA@0:XOR@4:NAND@1:PMOS-4@1_B.  This node is used by M:I2C_SUBM@0:ADD_DETE@0:_14B_EQUA@0:XOR@4:NAND@1:PMOS-4@1.
WARNING: Less than two connections to node I2C_SUBM@0:ADD_DETE@0:_14B_EQUA@0:XOR@4:NAND@2:PMOS-4@1_B.  This node is used by M:I2C_SUBM@0:ADD_DETE@0:_14B_EQUA@0:XOR@4:NAND@2:PMOS-4@1.
WARNING: Less than two connections to node I2C_SUBM@0:ADD_DETE@0:_14B_EQUA@0:XOR@4:NAND@3:PMOS-4@1_B.  This node is used by M:I2C_SUBM@0:ADD_DETE@0:_14B_EQUA@0:XOR@4:NAND@3:PMOS-4@1.
WARNING: Less than two connections to node I2C_SUBM@0:ADD_DETE@0:_14B_EQUA@0:XOR@5:NAND@0:PMOS-4@1_B.  This node is used by M:I2C_SUBM@0:ADD_DETE@0:_14B_EQUA@0:XOR@5:NAND@0:PMOS-4@1.
WARNING: Less than two connections to node I2C_SUBM@0:ADD_DETE@0:_14B_EQUA@0:XOR@5:NAND@1:PMOS-4@1_B.  This node is used by M:I2C_SUBM@0:ADD_DETE@0:_14B_EQUA@0:XOR@5:NAND@1:PMOS-4@1.
WARNING: Less than two connections to node I2C_SUBM@0:ADD_DETE@0:_14B_EQUA@0:XOR@5:NAND@2:PMOS-4@1_B.  This node is used by M:I2C_SUBM@0:ADD_DETE@0:_14B_EQUA@0:XOR@5:NAND@2:PMOS-4@1.
WARNING: Less than two connections to node I2C_SUBM@0:ADD_DETE@0:_14B_EQUA@0:XOR@5:NAND@3:PMOS-4@1_B.  This node is used by M:I2C_SUBM@0:ADD_DETE@0:_14B_EQUA@0:XOR@5:NAND@3:PMOS-4@1.
WARNING: Less than two connections to node I2C_SUBM@0:ADD_DETE@0:_14B_EQUA@0:XOR@6:NAND@0:PMOS-4@1_B.  This node is used by M:I2C_SUBM@0:ADD_DETE@0:_14B_EQUA@0:XOR@6:NAND@0:PMOS-4@1.
WARNING: Less than two connections to node I2C_SUBM@0:ADD_DETE@0:_14B_EQUA@0:XOR@6:NAND@1:PMOS-4@1_B.  This node is used by M:I2C_SUBM@0:ADD_DETE@0:_14B_EQUA@0:XOR@6:NAND@1:PMOS-4@1.
WARNING: Less than two connections to node I2C_SUBM@0:ADD_DETE@0:_14B_EQUA@0:XOR@6:NAND@2:PMOS-4@1_B.  This node is used by M:I2C_SUBM@0:ADD_DETE@0:_14B_EQUA@0:XOR@6:NAND@2:PMOS-4@1.
WARNING: Less than two connections to node I2C_SUBM@0:ADD_DETE@0:_14B_EQUA@0:XOR@6:NAND@3:PMOS-4@1_B.  This node is used by M:I2C_SUBM@0:ADD_DETE@0:_14B_EQUA@0:XOR@6:NAND@3:PMOS-4@1.
WARNING: Less than two connections to node I2C_SUBM@0:ADD_DETE@0:AND@0:NAND@0:PMOS-4@1_B.  This node is used by M:I2C_SUBM@0:ADD_DETE@0:AND@0:NAND@0:PMOS-4@1.
WARNING: Less than two connections to node I2C_SUBM@0:ADD_DETE@0:FFD_CLRN@0:CLK_NOSO@0:NOR@0:PMOS-4@2_B.  This node is used by M:I2C_SUBM@0:ADD_DETE@0:FFD_CLRN@0:CLK_NOSO@0:NOR@0:PMOS-4@2.
WARNING: Less than two connections to node I2C_SUBM@0:ADD_DETE@0:FFD_CLRN@0:CLK_NOSO@0:NOR@1:PMOS-4@2_B.  This node is used by M:I2C_SUBM@0:ADD_DETE@0:FFD_CLRN@0:CLK_NOSO@0:NOR@1:PMOS-4@2.
WARNING: Less than two connections to node I2C_SUBM@0:ADD_DETE@0:FFD_CLRN@0:NAND@0:PMOS-4@1_B.  This node is used by M:I2C_SUBM@0:ADD_DETE@0:FFD_CLRN@0:NAND@0:PMOS-4@1.
WARNING: Less than two connections to node I2C_SUBM@0:ADD_DETE@0:FFD_CLRN@0:NAND@1:PMOS-4@1_B.  This node is used by M:I2C_SUBM@0:ADD_DETE@0:FFD_CLRN@0:NAND@1:PMOS-4@1.
WARNING: Less than two connections to node I2C_SUBM@0:ADD_DETE@0:FFD_CLRN@0:OR_NOTAN@0:NOR@0:PMOS-4@2_B.  This node is used by M:I2C_SUBM@0:ADD_DETE@0:FFD_CLRN@0:OR_NOTAN@0:NOR@0:PMOS-4@2.
WARNING: Less than two connections to node I2C_SUBM@0:ADD_DETE@0:FFD_CLRN@0:OR_NOTAN@1:NOR@0:PMOS-4@2_B.  This node is used by M:I2C_SUBM@0:ADD_DETE@0:FFD_CLRN@0:OR_NOTAN@1:NOR@0:PMOS-4@2.
WARNING: Less than two connections to node I2C_SUBM@0:ADD_DETE@0:FFD_CLRN@2:CLK_NOSO@0:NOR@0:PMOS-4@2_B.  This node is used by M:I2C_SUBM@0:ADD_DETE@0:FFD_CLRN@2:CLK_NOSO@0:NOR@0:PMOS-4@2.
WARNING: Less than two connections to node I2C_SUBM@0:ADD_DETE@0:FFD_CLRN@2:CLK_NOSO@0:NOR@1:PMOS-4@2_B.  This node is used by M:I2C_SUBM@0:ADD_DETE@0:FFD_CLRN@2:CLK_NOSO@0:NOR@1:PMOS-4@2.
WARNING: Less than two connections to node I2C_SUBM@0:ADD_DETE@0:FFD_CLRN@2:NAND@0:PMOS-4@1_B.  This node is used by M:I2C_SUBM@0:ADD_DETE@0:FFD_CLRN@2:NAND@0:PMOS-4@1.
WARNING: Less than two connections to node I2C_SUBM@0:ADD_DETE@0:FFD_CLRN@2:NAND@1:PMOS-4@1_B.  This node is used by M:I2C_SUBM@0:ADD_DETE@0:FFD_CLRN@2:NAND@1:PMOS-4@1.
WARNING: Less than two connections to node I2C_SUBM@0:ADD_DETE@0:FFD_CLRN@2:OR_NOTAN@0:NOR@0:PMOS-4@2_B.  This node is used by M:I2C_SUBM@0:ADD_DETE@0:FFD_CLRN@2:OR_NOTAN@0:NOR@0:PMOS-4@2.
WARNING: Less than two connections to node I2C_SUBM@0:ADD_DETE@0:FFD_CLRN@2:OR_NOTAN@1:NOR@0:PMOS-4@2_B.  This node is used by M:I2C_SUBM@0:ADD_DETE@0:FFD_CLRN@2:OR_NOTAN@1:NOR@0:PMOS-4@2.
WARNING: Less than two connections to node I2C_SUBM@0:ADD_DETE@0:FFD_CLRN@3:CLK_NOSO@0:NOR@0:PMOS-4@2_B.  This node is used by M:I2C_SUBM@0:ADD_DETE@0:FFD_CLRN@3:CLK_NOSO@0:NOR@0:PMOS-4@2.
WARNING: Less than two connections to node I2C_SUBM@0:ADD_DETE@0:FFD_CLRN@3:CLK_NOSO@0:NOR@1:PMOS-4@2_B.  This node is used by M:I2C_SUBM@0:ADD_DETE@0:FFD_CLRN@3:CLK_NOSO@0:NOR@1:PMOS-4@2.
WARNING: Less than two connections to node I2C_SUBM@0:ADD_DETE@0:FFD_CLRN@3:NAND@0:PMOS-4@1_B.  This node is used by M:I2C_SUBM@0:ADD_DETE@0:FFD_CLRN@3:NAND@0:PMOS-4@1.
WARNING: Less than two connections to node I2C_SUBM@0:ADD_DETE@0:FFD_CLRN@3:NAND@1:PMOS-4@1_B.  This node is used by M:I2C_SUBM@0:ADD_DETE@0:FFD_CLRN@3:NAND@1:PMOS-4@1.
WARNING: Less than two connections to node I2C_SUBM@0:ADD_DETE@0:FFD_CLRN@3:OR_NOTAN@0:NOR@0:PMOS-4@2_B.  This node is used by M:I2C_SUBM@0:ADD_DETE@0:FFD_CLRN@3:OR_NOTAN@0:NOR@0:PMOS-4@2.
WARNING: Less than two connections to node I2C_SUBM@0:ADD_DETE@0:FFD_CLRN@3:OR_NOTAN@1:NOR@0:PMOS-4@2_B.  This node is used by M:I2C_SUBM@0:ADD_DETE@0:FFD_CLRN@3:OR_NOTAN@1:NOR@0:PMOS-4@2.
WARNING: Less than two connections to node I2C_SUBM@0:ADD_DETE@0:XOR@0:NAND@0:PMOS-4@1_B.  This node is used by M:I2C_SUBM@0:ADD_DETE@0:XOR@0:NAND@0:PMOS-4@1.
WARNING: Less than two connections to node I2C_SUBM@0:ADD_DETE@0:XOR@0:NAND@1:PMOS-4@1_B.  This node is used by M:I2C_SUBM@0:ADD_DETE@0:XOR@0:NAND@1:PMOS-4@1.
WARNING: Less than two connections to node I2C_SUBM@0:ADD_DETE@0:XOR@0:NAND@2:PMOS-4@1_B.  This node is used by M:I2C_SUBM@0:ADD_DETE@0:XOR@0:NAND@2:PMOS-4@1.
WARNING: Less than two connections to node I2C_SUBM@0:ADD_DETE@0:XOR@0:NAND@3:PMOS-4@1_B.  This node is used by M:I2C_SUBM@0:ADD_DETE@0:XOR@0:NAND@3:PMOS-4@1.
WARNING: Less than two connections to node I2C_SUBM@0:BUFF_8BI@0:FFD_CLRN@0:CLK_NOSO@0:NOR@0:PMOS-4@2_B.  This node is used by M:I2C_SUBM@0:BUFF_8BI@0:FFD_CLRN@0:CLK_NOSO@0:NOR@0:PMOS-4@2.
WARNING: Less than two connections to node I2C_SUBM@0:BUFF_8BI@0:FFD_CLRN@0:CLK_NOSO@0:NOR@1:PMOS-4@2_B.  This node is used by M:I2C_SUBM@0:BUFF_8BI@0:FFD_CLRN@0:CLK_NOSO@0:NOR@1:PMOS-4@2.
WARNING: Less than two connections to node I2C_SUBM@0:BUFF_8BI@0:FFD_CLRN@0:NAND@0:PMOS-4@1_B.  This node is used by M:I2C_SUBM@0:BUFF_8BI@0:FFD_CLRN@0:NAND@0:PMOS-4@1.
WARNING: Less than two connections to node I2C_SUBM@0:BUFF_8BI@0:FFD_CLRN@0:NAND@1:PMOS-4@1_B.  This node is used by M:I2C_SUBM@0:BUFF_8BI@0:FFD_CLRN@0:NAND@1:PMOS-4@1.
WARNING: Less than two connections to node I2C_SUBM@0:BUFF_8BI@0:FFD_CLRN@0:OR_NOTAN@0:NOR@0:PMOS-4@2_B.  This node is used by M:I2C_SUBM@0:BUFF_8BI@0:FFD_CLRN@0:OR_NOTAN@0:NOR@0:PMOS-4@2.
WARNING: Less than two connections to node I2C_SUBM@0:BUFF_8BI@0:FFD_CLRN@0:OR_NOTAN@1:NOR@0:PMOS-4@2_B.  This node is used by M:I2C_SUBM@0:BUFF_8BI@0:FFD_CLRN@0:OR_NOTAN@1:NOR@0:PMOS-4@2.
WARNING: Less than two connections to node I2C_SUBM@0:BUFF_8BI@0:FFD_CLRN@1:CLK_NOSO@0:NOR@0:PMOS-4@2_B.  This node is used by M:I2C_SUBM@0:BUFF_8BI@0:FFD_CLRN@1:CLK_NOSO@0:NOR@0:PMOS-4@2.
WARNING: Less than two connections to node I2C_SUBM@0:BUFF_8BI@0:FFD_CLRN@1:CLK_NOSO@0:NOR@1:PMOS-4@2_B.  This node is used by M:I2C_SUBM@0:BUFF_8BI@0:FFD_CLRN@1:CLK_NOSO@0:NOR@1:PMOS-4@2.
WARNING: Less than two connections to node I2C_SUBM@0:BUFF_8BI@0:FFD_CLRN@1:NAND@0:PMOS-4@1_B.  This node is used by M:I2C_SUBM@0:BUFF_8BI@0:FFD_CLRN@1:NAND@0:PMOS-4@1.
WARNING: Less than two connections to node I2C_SUBM@0:BUFF_8BI@0:FFD_CLRN@1:NAND@1:PMOS-4@1_B.  This node is used by M:I2C_SUBM@0:BUFF_8BI@0:FFD_CLRN@1:NAND@1:PMOS-4@1.
WARNING: Less than two connections to node I2C_SUBM@0:BUFF_8BI@0:FFD_CLRN@1:OR_NOTAN@0:NOR@0:PMOS-4@2_B.  This node is used by M:I2C_SUBM@0:BUFF_8BI@0:FFD_CLRN@1:OR_NOTAN@0:NOR@0:PMOS-4@2.
WARNING: Less than two connections to node I2C_SUBM@0:BUFF_8BI@0:FFD_CLRN@1:OR_NOTAN@1:NOR@0:PMOS-4@2_B.  This node is used by M:I2C_SUBM@0:BUFF_8BI@0:FFD_CLRN@1:OR_NOTAN@1:NOR@0:PMOS-4@2.
WARNING: Less than two connections to node I2C_SUBM@0:BUFF_8BI@0:FFD_CLRN@2:CLK_NOSO@0:NOR@0:PMOS-4@2_B.  This node is used by M:I2C_SUBM@0:BUFF_8BI@0:FFD_CLRN@2:CLK_NOSO@0:NOR@0:PMOS-4@2.
WARNING: Less than two connections to node I2C_SUBM@0:BUFF_8BI@0:FFD_CLRN@2:CLK_NOSO@0:NOR@1:PMOS-4@2_B.  This node is used by M:I2C_SUBM@0:BUFF_8BI@0:FFD_CLRN@2:CLK_NOSO@0:NOR@1:PMOS-4@2.
WARNING: Less than two connections to node I2C_SUBM@0:BUFF_8BI@0:FFD_CLRN@2:NAND@0:PMOS-4@1_B.  This node is used by M:I2C_SUBM@0:BUFF_8BI@0:FFD_CLRN@2:NAND@0:PMOS-4@1.
WARNING: Less than two connections to node I2C_SUBM@0:BUFF_8BI@0:FFD_CLRN@2:NAND@1:PMOS-4@1_B.  This node is used by M:I2C_SUBM@0:BUFF_8BI@0:FFD_CLRN@2:NAND@1:PMOS-4@1.
WARNING: Less than two connections to node I2C_SUBM@0:BUFF_8BI@0:FFD_CLRN@2:OR_NOTAN@0:NOR@0:PMOS-4@2_B.  This node is used by M:I2C_SUBM@0:BUFF_8BI@0:FFD_CLRN@2:OR_NOTAN@0:NOR@0:PMOS-4@2.
WARNING: Less than two connections to node I2C_SUBM@0:BUFF_8BI@0:FFD_CLRN@2:OR_NOTAN@1:NOR@0:PMOS-4@2_B.  This node is used by M:I2C_SUBM@0:BUFF_8BI@0:FFD_CLRN@2:OR_NOTAN@1:NOR@0:PMOS-4@2.
WARNING: Less than two connections to node I2C_SUBM@0:BUFF_8BI@0:FFD_CLRN@3:CLK_NOSO@0:NOR@0:PMOS-4@2_B.  This node is used by M:I2C_SUBM@0:BUFF_8BI@0:FFD_CLRN@3:CLK_NOSO@0:NOR@0:PMOS-4@2.
WARNING: Less than two connections to node I2C_SUBM@0:BUFF_8BI@0:FFD_CLRN@3:CLK_NOSO@0:NOR@1:PMOS-4@2_B.  This node is used by M:I2C_SUBM@0:BUFF_8BI@0:FFD_CLRN@3:CLK_NOSO@0:NOR@1:PMOS-4@2.
WARNING: Less than two connections to node I2C_SUBM@0:BUFF_8BI@0:FFD_CLRN@3:NAND@0:PMOS-4@1_B.  This node is used by M:I2C_SUBM@0:BUFF_8BI@0:FFD_CLRN@3:NAND@0:PMOS-4@1.
WARNING: Less than two connections to node I2C_SUBM@0:BUFF_8BI@0:FFD_CLRN@3:NAND@1:PMOS-4@1_B.  This node is used by M:I2C_SUBM@0:BUFF_8BI@0:FFD_CLRN@3:NAND@1:PMOS-4@1.
WARNING: Less than two connections to node I2C_SUBM@0:BUFF_8BI@0:FFD_CLRN@3:OR_NOTAN@0:NOR@0:PMOS-4@2_B.  This node is used by M:I2C_SUBM@0:BUFF_8BI@0:FFD_CLRN@3:OR_NOTAN@0:NOR@0:PMOS-4@2.
WARNING: Less than two connections to node I2C_SUBM@0:BUFF_8BI@0:FFD_CLRN@3:OR_NOTAN@1:NOR@0:PMOS-4@2_B.  This node is used by M:I2C_SUBM@0:BUFF_8BI@0:FFD_CLRN@3:OR_NOTAN@1:NOR@0:PMOS-4@2.
WARNING: Less than two connections to node I2C_SUBM@0:BUFF_8BI@0:FFD_CLRN@4:CLK_NOSO@0:NOR@0:PMOS-4@2_B.  This node is used by M:I2C_SUBM@0:BUFF_8BI@0:FFD_CLRN@4:CLK_NOSO@0:NOR@0:PMOS-4@2.
WARNING: Less than two connections to node I2C_SUBM@0:BUFF_8BI@0:FFD_CLRN@4:CLK_NOSO@0:NOR@1:PMOS-4@2_B.  This node is used by M:I2C_SUBM@0:BUFF_8BI@0:FFD_CLRN@4:CLK_NOSO@0:NOR@1:PMOS-4@2.
WARNING: Less than two connections to node I2C_SUBM@0:BUFF_8BI@0:FFD_CLRN@4:NAND@0:PMOS-4@1_B.  This node is used by M:I2C_SUBM@0:BUFF_8BI@0:FFD_CLRN@4:NAND@0:PMOS-4@1.
WARNING: Less than two connections to node I2C_SUBM@0:BUFF_8BI@0:FFD_CLRN@4:NAND@1:PMOS-4@1_B.  This node is used by M:I2C_SUBM@0:BUFF_8BI@0:FFD_CLRN@4:NAND@1:PMOS-4@1.
WARNING: Less than two connections to node I2C_SUBM@0:BUFF_8BI@0:FFD_CLRN@4:OR_NOTAN@0:NOR@0:PMOS-4@2_B.  This node is used by M:I2C_SUBM@0:BUFF_8BI@0:FFD_CLRN@4:OR_NOTAN@0:NOR@0:PMOS-4@2.
WARNING: Less than two connections to node I2C_SUBM@0:BUFF_8BI@0:FFD_CLRN@4:OR_NOTAN@1:NOR@0:PMOS-4@2_B.  This node is used by M:I2C_SUBM@0:BUFF_8BI@0:FFD_CLRN@4:OR_NOTAN@1:NOR@0:PMOS-4@2.
WARNING: Less than two connections to node I2C_SUBM@0:BUFF_8BI@0:FFD_CLRN@5:CLK_NOSO@0:NOR@0:PMOS-4@2_B.  This node is used by M:I2C_SUBM@0:BUFF_8BI@0:FFD_CLRN@5:CLK_NOSO@0:NOR@0:PMOS-4@2.
WARNING: Less than two connections to node I2C_SUBM@0:BUFF_8BI@0:FFD_CLRN@5:CLK_NOSO@0:NOR@1:PMOS-4@2_B.  This node is used by M:I2C_SUBM@0:BUFF_8BI@0:FFD_CLRN@5:CLK_NOSO@0:NOR@1:PMOS-4@2.
WARNING: Less than two connections to node I2C_SUBM@0:BUFF_8BI@0:FFD_CLRN@5:NAND@0:PMOS-4@1_B.  This node is used by M:I2C_SUBM@0:BUFF_8BI@0:FFD_CLRN@5:NAND@0:PMOS-4@1.
WARNING: Less than two connections to node I2C_SUBM@0:BUFF_8BI@0:FFD_CLRN@5:NAND@1:PMOS-4@1_B.  This node is used by M:I2C_SUBM@0:BUFF_8BI@0:FFD_CLRN@5:NAND@1:PMOS-4@1.
WARNING: Less than two connections to node I2C_SUBM@0:BUFF_8BI@0:FFD_CLRN@5:OR_NOTAN@0:NOR@0:PMOS-4@2_B.  This node is used by M:I2C_SUBM@0:BUFF_8BI@0:FFD_CLRN@5:OR_NOTAN@0:NOR@0:PMOS-4@2.
WARNING: Less than two connections to node I2C_SUBM@0:BUFF_8BI@0:FFD_CLRN@5:OR_NOTAN@1:NOR@0:PMOS-4@2_B.  This node is used by M:I2C_SUBM@0:BUFF_8BI@0:FFD_CLRN@5:OR_NOTAN@1:NOR@0:PMOS-4@2.
WARNING: Less than two connections to node I2C_SUBM@0:BUFF_8BI@0:FFD_CLRN@6:CLK_NOSO@0:NOR@0:PMOS-4@2_B.  This node is used by M:I2C_SUBM@0:BUFF_8BI@0:FFD_CLRN@6:CLK_NOSO@0:NOR@0:PMOS-4@2.
WARNING: Less than two connections to node I2C_SUBM@0:BUFF_8BI@0:FFD_CLRN@6:CLK_NOSO@0:NOR@1:PMOS-4@2_B.  This node is used by M:I2C_SUBM@0:BUFF_8BI@0:FFD_CLRN@6:CLK_NOSO@0:NOR@1:PMOS-4@2.
WARNING: Less than two connections to node I2C_SUBM@0:BUFF_8BI@0:FFD_CLRN@6:NAND@0:PMOS-4@1_B.  This node is used by M:I2C_SUBM@0:BUFF_8BI@0:FFD_CLRN@6:NAND@0:PMOS-4@1.
WARNING: Less than two connections to node I2C_SUBM@0:BUFF_8BI@0:FFD_CLRN@6:NAND@1:PMOS-4@1_B.  This node is used by M:I2C_SUBM@0:BUFF_8BI@0:FFD_CLRN@6:NAND@1:PMOS-4@1.
WARNING: Less than two connections to node I2C_SUBM@0:BUFF_8BI@0:FFD_CLRN@6:OR_NOTAN@0:NOR@0:PMOS-4@2_B.  This node is used by M:I2C_SUBM@0:BUFF_8BI@0:FFD_CLRN@6:OR_NOTAN@0:NOR@0:PMOS-4@2.
WARNING: Less than two connections to node I2C_SUBM@0:BUFF_8BI@0:FFD_CLRN@6:OR_NOTAN@1:NOR@0:PMOS-4@2_B.  This node is used by M:I2C_SUBM@0:BUFF_8BI@0:FFD_CLRN@6:OR_NOTAN@1:NOR@0:PMOS-4@2.
WARNING: Less than two connections to node I2C_SUBM@0:BUFF_8BI@0:FFD_CLRN@7:CLK_NOSO@0:NOR@0:PMOS-4@2_B.  This node is used by M:I2C_SUBM@0:BUFF_8BI@0:FFD_CLRN@7:CLK_NOSO@0:NOR@0:PMOS-4@2.
WARNING: Less than two connections to node I2C_SUBM@0:BUFF_8BI@0:FFD_CLRN@7:CLK_NOSO@0:NOR@1:PMOS-4@2_B.  This node is used by M:I2C_SUBM@0:BUFF_8BI@0:FFD_CLRN@7:CLK_NOSO@0:NOR@1:PMOS-4@2.
WARNING: Less than two connections to node I2C_SUBM@0:BUFF_8BI@0:FFD_CLRN@7:NAND@0:PMOS-4@1_B.  This node is used by M:I2C_SUBM@0:BUFF_8BI@0:FFD_CLRN@7:NAND@0:PMOS-4@1.
WARNING: Less than two connections to node I2C_SUBM@0:BUFF_8BI@0:FFD_CLRN@7:NAND@1:PMOS-4@1_B.  This node is used by M:I2C_SUBM@0:BUFF_8BI@0:FFD_CLRN@7:NAND@1:PMOS-4@1.
WARNING: Less than two connections to node I2C_SUBM@0:BUFF_8BI@0:FFD_CLRN@7:OR_NOTAN@0:NOR@0:PMOS-4@2_B.  This node is used by M:I2C_SUBM@0:BUFF_8BI@0:FFD_CLRN@7:OR_NOTAN@0:NOR@0:PMOS-4@2.
WARNING: Less than two connections to node I2C_SUBM@0:BUFF_8BI@0:FFD_CLRN@7:OR_NOTAN@1:NOR@0:PMOS-4@2_B.  This node is used by M:I2C_SUBM@0:BUFF_8BI@0:FFD_CLRN@7:OR_NOTAN@1:NOR@0:PMOS-4@2.
WARNING: Less than two connections to node I2C_SUBM@0:WRITE_MO@0:AND@0:NAND@0:PMOS-4@1_B.  This node is used by M:I2C_SUBM@0:WRITE_MO@0:AND@0:NAND@0:PMOS-4@1.
WARNING: Less than two connections to node I2C_SUBM@0:WRITE_MO@0:AND@1:NAND@0:PMOS-4@1_B.  This node is used by M:I2C_SUBM@0:WRITE_MO@0:AND@1:NAND@0:PMOS-4@1.
WARNING: Less than two connections to node I2C_SUBM@0:WRITE_MO@0:AND@2:NAND@0:PMOS-4@1_B.  This node is used by M:I2C_SUBM@0:WRITE_MO@0:AND@2:NAND@0:PMOS-4@1.
WARNING: Less than two connections to node I2C_SUBM@0:WRITE_MO@0:FFD_CLRN@1:CLK_NOSO@0:NOR@0:PMOS-4@2_B.  This node is used by M:I2C_SUBM@0:WRITE_MO@0:FFD_CLRN@1:CLK_NOSO@0:NOR@0:PMOS-4@2.
WARNING: Less than two connections to node I2C_SUBM@0:WRITE_MO@0:FFD_CLRN@1:CLK_NOSO@0:NOR@1:PMOS-4@2_B.  This node is used by M:I2C_SUBM@0:WRITE_MO@0:FFD_CLRN@1:CLK_NOSO@0:NOR@1:PMOS-4@2.
WARNING: Less than two connections to node I2C_SUBM@0:WRITE_MO@0:FFD_CLRN@1:NAND@0:PMOS-4@1_B.  This node is used by M:I2C_SUBM@0:WRITE_MO@0:FFD_CLRN@1:NAND@0:PMOS-4@1.
WARNING: Less than two connections to node I2C_SUBM@0:WRITE_MO@0:FFD_CLRN@1:NAND@1:PMOS-4@1_B.  This node is used by M:I2C_SUBM@0:WRITE_MO@0:FFD_CLRN@1:NAND@1:PMOS-4@1.
WARNING: Less than two connections to node I2C_SUBM@0:WRITE_MO@0:FFD_CLRN@1:OR_NOTAN@0:NOR@0:PMOS-4@2_B.  This node is used by M:I2C_SUBM@0:WRITE_MO@0:FFD_CLRN@1:OR_NOTAN@0:NOR@0:PMOS-4@2.
WARNING: Less than two connections to node I2C_SUBM@0:WRITE_MO@0:FFD_CLRN@1:OR_NOTAN@1:NOR@0:PMOS-4@2_B.  This node is used by M:I2C_SUBM@0:WRITE_MO@0:FFD_CLRN@1:OR_NOTAN@1:NOR@0:PMOS-4@2.
WARNING: Less than two connections to node I2C_SUBM@0:WRITE_MO@0:FFD_CLRN@2:CLK_NOSO@0:NOR@0:PMOS-4@2_B.  This node is used by M:I2C_SUBM@0:WRITE_MO@0:FFD_CLRN@2:CLK_NOSO@0:NOR@0:PMOS-4@2.
WARNING: Less than two connections to node I2C_SUBM@0:WRITE_MO@0:FFD_CLRN@2:CLK_NOSO@0:NOR@1:PMOS-4@2_B.  This node is used by M:I2C_SUBM@0:WRITE_MO@0:FFD_CLRN@2:CLK_NOSO@0:NOR@1:PMOS-4@2.
WARNING: Less than two connections to node I2C_SUBM@0:WRITE_MO@0:FFD_CLRN@2:NAND@0:PMOS-4@1_B.  This node is used by M:I2C_SUBM@0:WRITE_MO@0:FFD_CLRN@2:NAND@0:PMOS-4@1.
WARNING: Less than two connections to node I2C_SUBM@0:WRITE_MO@0:FFD_CLRN@2:NAND@1:PMOS-4@1_B.  This node is used by M:I2C_SUBM@0:WRITE_MO@0:FFD_CLRN@2:NAND@1:PMOS-4@1.
WARNING: Less than two connections to node I2C_SUBM@0:WRITE_MO@0:FFD_CLRN@2:OR_NOTAN@0:NOR@0:PMOS-4@2_B.  This node is used by M:I2C_SUBM@0:WRITE_MO@0:FFD_CLRN@2:OR_NOTAN@0:NOR@0:PMOS-4@2.
WARNING: Less than two connections to node I2C_SUBM@0:WRITE_MO@0:FFD_CLRN@2:OR_NOTAN@1:NOR@0:PMOS-4@2_B.  This node is used by M:I2C_SUBM@0:WRITE_MO@0:FFD_CLRN@2:OR_NOTAN@1:NOR@0:PMOS-4@2.
WARNING: Less than two connections to node I2C_SUBM@0:WRITE_MO@0:SR_PISO@0:FFD_CLRN@0:CLK_NOSO@0:NOR@0:PMOS-4@2_B.  This node is used by M:I2C_SUBM@0:WRITE_MO@0:SR_PISO@0:FFD_CLRN@0:CLK_NOSO@0:NOR@0:PMOS-4@2.
WARNING: Less than two connections to node I2C_SUBM@0:WRITE_MO@0:SR_PISO@0:FFD_CLRN@0:CLK_NOSO@0:NOR@1:PMOS-4@2_B.  This node is used by M:I2C_SUBM@0:WRITE_MO@0:SR_PISO@0:FFD_CLRN@0:CLK_NOSO@0:NOR@1:PMOS-4@2.
WARNING: Less than two connections to node I2C_SUBM@0:WRITE_MO@0:SR_PISO@0:FFD_CLRN@0:NAND@0:PMOS-4@1_B.  This node is used by M:I2C_SUBM@0:WRITE_MO@0:SR_PISO@0:FFD_CLRN@0:NAND@0:PMOS-4@1.
WARNING: Less than two connections to node I2C_SUBM@0:WRITE_MO@0:SR_PISO@0:FFD_CLRN@0:NAND@1:PMOS-4@1_B.  This node is used by M:I2C_SUBM@0:WRITE_MO@0:SR_PISO@0:FFD_CLRN@0:NAND@1:PMOS-4@1.
WARNING: Less than two connections to node I2C_SUBM@0:WRITE_MO@0:SR_PISO@0:FFD_CLRN@0:OR_NOTAN@0:NOR@0:PMOS-4@2_B.  This node is used by M:I2C_SUBM@0:WRITE_MO@0:SR_PISO@0:FFD_CLRN@0:OR_NOTAN@0:NOR@0:PMOS-4@2.
WARNING: Less than two connections to node I2C_SUBM@0:WRITE_MO@0:SR_PISO@0:FFD_CLRN@0:OR_NOTAN@1:NOR@0:PMOS-4@2_B.  This node is used by M:I2C_SUBM@0:WRITE_MO@0:SR_PISO@0:FFD_CLRN@0:OR_NOTAN@1:NOR@0:PMOS-4@2.
WARNING: Less than two connections to node I2C_SUBM@0:WRITE_MO@0:SR_PISO@0:FFD_CLRN@1:CLK_NOSO@0:NOR@0:PMOS-4@2_B.  This node is used by M:I2C_SUBM@0:WRITE_MO@0:SR_PISO@0:FFD_CLRN@1:CLK_NOSO@0:NOR@0:PMOS-4@2.
WARNING: Less than two connections to node I2C_SUBM@0:WRITE_MO@0:SR_PISO@0:FFD_CLRN@1:CLK_NOSO@0:NOR@1:PMOS-4@2_B.  This node is used by M:I2C_SUBM@0:WRITE_MO@0:SR_PISO@0:FFD_CLRN@1:CLK_NOSO@0:NOR@1:PMOS-4@2.
WARNING: Less than two connections to node I2C_SUBM@0:WRITE_MO@0:SR_PISO@0:FFD_CLRN@1:NAND@0:PMOS-4@1_B.  This node is used by M:I2C_SUBM@0:WRITE_MO@0:SR_PISO@0:FFD_CLRN@1:NAND@0:PMOS-4@1.
WARNING: Less than two connections to node I2C_SUBM@0:WRITE_MO@0:SR_PISO@0:FFD_CLRN@1:NAND@1:PMOS-4@1_B.  This node is used by M:I2C_SUBM@0:WRITE_MO@0:SR_PISO@0:FFD_CLRN@1:NAND@1:PMOS-4@1.
WARNING: Less than two connections to node I2C_SUBM@0:WRITE_MO@0:SR_PISO@0:FFD_CLRN@1:OR_NOTAN@0:NOR@0:PMOS-4@2_B.  This node is used by M:I2C_SUBM@0:WRITE_MO@0:SR_PISO@0:FFD_CLRN@1:OR_NOTAN@0:NOR@0:PMOS-4@2.
[...]
WARNING: Less than two connections to node I2C_SUBM@0:WRITE_MO@0:SR_PISO@0:FFD_CLRN@5:OR_NOTAN@1:NOR@0:PMOS-4@2_B.  This node is used by M:I2C_SUBM@0:WRITE_MO@0:SR_PISO@0:FFD_CLRN@5:OR_NOTAN@1:NOR@0:PMOS-4@2.
WARNING: Less than two connections to node I2C_SUBM@0:WRITE_MO@0:SR_PISO@0:FFD_CLRN@6:CLK_NOSO@0:NOR@0:PMOS-4@2_B.  This node is used by M:I2C_SUBM@0:WRITE_MO@0:SR_PISO@0:FFD_CLRN@6:CLK_NOSO@0:NOR@0:PMOS-4@2.
WARNING: Less than two connections to node I2C_SUBM@0:WRITE_MO@0:SR_PISO@0:FFD_CLRN@6:CLK_NOSO@0:NOR@1:PMOS-4@2_B.  This node is used by M:I2C_SUBM@0:WRITE_MO@0:SR_PISO@0:FFD_CLRN@6:CLK_NOSO@0:NOR@1:PMOS-4@2.
WARNING: Less than two connections to node I2C_SUBM@0:WRITE_MO@0:SR_PISO@0:FFD_CLRN@6:NAND@0:PMOS-4@1_B.  This node is used by M:I2C_SUBM@0:WRITE_MO@0:SR_PISO@0:FFD_CLRN@6:NAND@0:PMOS-4@1.
WARNING: Less than two connections to node I2C_SUBM@0:WRITE_MO@0:SR_PISO@0:FFD_CLRN@6:NAND@1:PMOS-4@1_B.  This node is used by M:I2C_SUBM@0:WRITE_MO@0:SR_PISO@0:FFD_CLRN@6:NAND@1:PMOS-4@1.
WARNING: Less than two connections to node I2C_SUBM@0:WRITE_MO@0:SR_PISO@0:FFD_CLRN@6:OR_NOTAN@0:NOR@0:PMOS-4@2_B.  This node is used by M:I2C_SUBM@0:WRITE_MO@0:SR_PISO@0:FFD_CLRN@6:OR_NOTAN@0:NOR@0:PMOS-4@2.
WARNING: Less than two connections to node I2C_SUBM@0:WRITE_MO@0:SR_PISO@0:FFD_CLRN@6:OR_NOTAN@1:NOR@0:PMOS-4@2_B.  This node is used by M:I2C_SUBM@0:WRITE_MO@0:SR_PISO@0:FFD_CLRN@6:OR_NOTAN@1:NOR@0:PMOS-4@2.
WARNING: Less than two connections to node I2C_SUBM@0:WRITE_MO@0:SR_PISO@0:FFD_CLRN@7:CLK_NOSO@0:NOR@0:PMOS-4@2_B.  This node is used by M:I2C_SUBM@0:WRITE_MO@0:SR_PISO@0:FFD_CLRN@7:CLK_NOSO@0:NOR@0:PMOS-4@2.
WARNING: Less than two connections to node I2C_SUBM@0:WRITE_MO@0:SR_PISO@0:FFD_CLRN@7:CLK_NOSO@0:NOR@1:PMOS-4@2_B.  This node is used by M:I2C_SUBM@0:WRITE_MO@0:SR_PISO@0:FFD_CLRN@7:CLK_NOSO@0:NOR@1:PMOS-4@2.
WARNING: Less than two connections to node I2C_SUBM@0:WRITE_MO@0:SR_PISO@0:FFD_CLRN@7:NAND@0:PMOS-4@1_B.  This node is used by M:I2C_SUBM@0:WRITE_MO@0:SR_PISO@0:FFD_CLRN@7:NAND@0:PMOS-4@1.
WARNING: Less than two connections to node I2C_SUBM@0:WRITE_MO@0:SR_PISO@0:FFD_CLRN@7:NAND@1:PMOS-4@1_B.  This node is used by M:I2C_SUBM@0:WRITE_MO@0:SR_PISO@0:FFD_CLRN@7:NAND@1:PMOS-4@1.
WARNING: Less than two connections to node I2C_SUBM@0:WRITE_MO@0:SR_PISO@0:FFD_CLRN@7:OR_NOTAN@0:NOR@0:PMOS-4@2_B.  This node is used by M:I2C_SUBM@0:WRITE_MO@0:SR_PISO@0:FFD_CLRN@7:OR_NOTAN@0:NOR@0:PMOS-4@2.
WARNING: Less than two connections to node I2C_SUBM@0:WRITE_MO@0:SR_PISO@0:FFD_CLRN@7:OR_NOTAN@1:NOR@0:PMOS-4@2_B.  This node is used by M:I2C_SUBM@0:WRITE_MO@0:SR_PISO@0:FFD_CLRN@7:OR_NOTAN@1:NOR@0:PMOS-4@2.
WARNING: Less than two connections to node I2C_SUBM@0:WRITE_MO@0:SR_PISO@0:FFD_CLRN@8:CLK_NOSO@0:NOR@0:PMOS-4@2_B.  This node is used by M:I2C_SUBM@0:WRITE_MO@0:SR_PISO@0:FFD_CLRN@8:CLK_NOSO@0:NOR@0:PMOS-4@2.
WARNING: Less than two connections to node I2C_SUBM@0:WRITE_MO@0:SR_PISO@0:FFD_CLRN@8:CLK_NOSO@0:NOR@1:PMOS-4@2_B.  This node is used by M:I2C_SUBM@0:WRITE_MO@0:SR_PISO@0:FFD_CLRN@8:CLK_NOSO@0:NOR@1:PMOS-4@2.
WARNING: Less than two connections to node I2C_SUBM@0:WRITE_MO@0:SR_PISO@0:FFD_CLRN@8:NAND@0:PMOS-4@1_B.  This node is used by M:I2C_SUBM@0:WRITE_MO@0:SR_PISO@0:FFD_CLRN@8:NAND@0:PMOS-4@1.
WARNING: Less than two connections to node I2C_SUBM@0:WRITE_MO@0:SR_PISO@0:FFD_CLRN@8:NAND@1:PMOS-4@1_B.  This node is used by M:I2C_SUBM@0:WRITE_MO@0:SR_PISO@0:FFD_CLRN@8:NAND@1:PMOS-4@1.
WARNING: Less than two connections to node I2C_SUBM@0:WRITE_MO@0:SR_PISO@0:FFD_CLRN@8:OR_NOTAN@0:NOR@0:PMOS-4@2_B.  This node is used by M:I2C_SUBM@0:WRITE_MO@0:SR_PISO@0:FFD_CLRN@8:OR_NOTAN@0:NOR@0:PMOS-4@2.
WARNING: Less than two connections to node I2C_SUBM@0:WRITE_MO@0:SR_PISO@0:FFD_CLRN@8:OR_NOTAN@1:NOR@0:PMOS-4@2_B.  This node is used by M:I2C_SUBM@0:WRITE_MO@0:SR_PISO@0:FFD_CLRN@8:OR_NOTAN@1:NOR@0:PMOS-4@2.
WARNING: Less than two connections to node I2C_SUBM@0:WRITE_MO@0:SR_PISO@0:FFD_CLRN@9:CLK_NOSO@0:NOR@0:PMOS-4@2_B.  This node is used by M:I2C_SUBM@0:WRITE_MO@0:SR_PISO@0:FFD_CLRN@9:CLK_NOSO@0:NOR@0:PMOS-4@2.
WARNING: Less than two connections to node I2C_SUBM@0:WRITE_MO@0:SR_PISO@0:FFD_CLRN@9:CLK_NOSO@0:NOR@1:PMOS-4@2_B.  This node is used by M:I2C_SUBM@0:WRITE_MO@0:SR_PISO@0:FFD_CLRN@9:CLK_NOSO@0:NOR@1:PMOS-4@2.
WARNING: Less than two connections to node I2C_SUBM@0:WRITE_MO@0:SR_PISO@0:FFD_CLRN@9:NAND@0:PMOS-4@1_B.  This node is used by M:I2C_SUBM@0:WRITE_MO@0:SR_PISO@0:FFD_CLRN@9:NAND@0:PMOS-4@1.
WARNING: Less than two connections to node I2C_SUBM@0:WRITE_MO@0:SR_PISO@0:FFD_CLRN@9:NAND@1:PMOS-4@1_B.  This node is used by M:I2C_SUBM@0:WRITE_MO@0:SR_PISO@0:FFD_CLRN@9:NAND@1:PMOS-4@1.
WARNING: Less than two connections to node I2C_SUBM@0:WRITE_MO@0:SR_PISO@0:FFD_CLRN@9:OR_NOTAN@0:NOR@0:PMOS-4@2_B.  This node is used by M:I2C_SUBM@0:WRITE_MO@0:SR_PISO@0:FFD_CLRN@9:OR_NOTAN@0:NOR@0:PMOS-4@2.
WARNING: Less than two connections to node I2C_SUBM@0:WRITE_MO@0:SR_PISO@0:FFD_CLRN@9:OR_NOTAN@1:NOR@0:PMOS-4@2_B.  This node is used by M:I2C_SUBM@0:WRITE_MO@0:SR_PISO@0:FFD_CLRN@9:OR_NOTAN@1:NOR@0:PMOS-4@2.
WARNING: Less than two connections to node I2C_SUBM@0:WRITE_MO@0:SR_PISO@0:FFD_CLRN@10:CLK_NOSO@0:NOR@0:PMOS-4@2_B.  This node is used by M:I2C_SUBM@0:WRITE_MO@0:SR_PISO@0:FFD_CLRN@10:CLK_NOSO@0:NOR@0:PMOS-4@2.
WARNING: Less than two connections to node I2C_SUBM@0:WRITE_MO@0:SR_PISO@0:FFD_CLRN@10:CLK_NOSO@0:NOR@1:PMOS-4@2_B.  This node is used by M:I2C_SUBM@0:WRITE_MO@0:SR_PISO@0:FFD_CLRN@10:CLK_NOSO@0:NOR@1:PMOS-4@2.
WARNING: Less than two connections to node I2C_SUBM@0:WRITE_MO@0:SR_PISO@0:FFD_CLRN@10:NAND@0:PMOS-4@1_B.  This node is used by M:I2C_SUBM@0:WRITE_MO@0:SR_PISO@0:FFD_CLRN@10:NAND@0:PMOS-4@1.
WARNING: Less than two connections to node I2C_SUBM@0:WRITE_MO@0:SR_PISO@0:FFD_CLRN@10:NAND@1:PMOS-4@1_B.  This node is used by M:I2C_SUBM@0:WRITE_MO@0:SR_PISO@0:FFD_CLRN@10:NAND@1:PMOS-4@1.
WARNING: Less than two connections to node I2C_SUBM@0:WRITE_MO@0:SR_PISO@0:FFD_CLRN@10:OR_NOTAN@0:NOR@0:PMOS-4@2_B.  This node is used by M:I2C_SUBM@0:WRITE_MO@0:SR_PISO@0:FFD_CLRN@10:OR_NOTAN@0:NOR@0:PMOS-4@2.
WARNING: Less than two connections to node I2C_SUBM@0:WRITE_MO@0:SR_PISO@0:FFD_CLRN@10:OR_NOTAN@1:NOR@0:PMOS-4@2_B.  This node is used by M:I2C_SUBM@0:WRITE_MO@0:SR_PISO@0:FFD_CLRN@10:OR_NOTAN@1:NOR@0:PMOS-4@2.
WARNING: Less than two connections to node I2C_SUBM@0:WRITE_MO@0:SR_PISO@0:FFD_CLRN@11:CLK_NOSO@0:NOR@0:PMOS-4@2_B.  This node is used by M:I2C_SUBM@0:WRITE_MO@0:SR_PISO@0:FFD_CLRN@11:CLK_NOSO@0:NOR@0:PMOS-4@2.
WARNING: Less than two connections to node I2C_SUBM@0:WRITE_MO@0:SR_PISO@0:FFD_CLRN@11:CLK_NOSO@0:NOR@1:PMOS-4@2_B.  This node is used by M:I2C_SUBM@0:WRITE_MO@0:SR_PISO@0:FFD_CLRN@11:CLK_NOSO@0:NOR@1:PMOS-4@2.
WARNING: Less than two connections to node I2C_SUBM@0:WRITE_MO@0:SR_PISO@0:FFD_CLRN@11:NAND@0:PMOS-4@1_B.  This node is used by M:I2C_SUBM@0:WRITE_MO@0:SR_PISO@0:FFD_CLRN@11:NAND@0:PMOS-4@1.
WARNING: Less than two connections to node I2C_SUBM@0:WRITE_MO@0:SR_PISO@0:FFD_CLRN@11:NAND@1:PMOS-4@1_B.  This node is used by M:I2C_SUBM@0:WRITE_MO@0:SR_PISO@0:FFD_CLRN@11:NAND@1:PMOS-4@1.
WARNING: Less than two connections to node I2C_SUBM@0:WRITE_MO@0:SR_PISO@0:FFD_CLRN@11:OR_NOTAN@0:NOR@0:PMOS-4@2_B.  This node is used by M:I2C_SUBM@0:WRITE_MO@0:SR_PISO@0:FFD_CLRN@11:OR_NOTAN@0:NOR@0:PMOS-4@2.
WARNING: Less than two connections to node I2C_SUBM@0:WRITE_MO@0:SR_PISO@0:FFD_CLRN@11:OR_NOTAN@1:NOR@0:PMOS-4@2_B.  This node is used by M:I2C_SUBM@0:WRITE_MO@0:SR_PISO@0:FFD_CLRN@11:OR_NOTAN@1:NOR@0:PMOS-4@2.
WARNING: Less than two connections to node I2C_SUBM@0:WRITE_MO@0:SR_PISO@0:FFD_CLRN@12:CLK_NOSO@0:NOR@0:PMOS-4@2_B.  This node is used by M:I2C_SUBM@0:WRITE_MO@0:SR_PISO@0:FFD_CLRN@12:CLK_NOSO@0:NOR@0:PMOS-4@2.
WARNING: Less than two connections to node I2C_SUBM@0:WRITE_MO@0:SR_PISO@0:FFD_CLRN@12:CLK_NOSO@0:NOR@1:PMOS-4@2_B.  This node is used by M:I2C_SUBM@0:WRITE_MO@0:SR_PISO@0:FFD_CLRN@12:CLK_NOSO@0:NOR@1:PMOS-4@2.
WARNING: Less than two connections to node I2C_SUBM@0:WRITE_MO@0:SR_PISO@0:FFD_CLRN@12:NAND@0:PMOS-4@1_B.  This node is used by M:I2C_SUBM@0:WRITE_MO@0:SR_PISO@0:FFD_CLRN@12:NAND@0:PMOS-4@1.
WARNING: Less than two connections to node I2C_SUBM@0:WRITE_MO@0:SR_PISO@0:FFD_CLRN@12:NAND@1:PMOS-4@1_B.  This node is used by M:I2C_SUBM@0:WRITE_MO@0:SR_PISO@0:FFD_CLRN@12:NAND@1:PMOS-4@1.
WARNING: Less than two connections to node I2C_SUBM@0:WRITE_MO@0:SR_PISO@0:FFD_CLRN@12:OR_NOTAN@0:NOR@0:PMOS-4@2_B.  This node is used by M:I2C_SUBM@0:WRITE_MO@0:SR_PISO@0:FFD_CLRN@12:OR_NOTAN@0:NOR@0:PMOS-4@2.
WARNING: Less than two connections to node I2C_SUBM@0:WRITE_MO@0:SR_PISO@0:FFD_CLRN@12:OR_NOTAN@1:NOR@0:PMOS-4@2_B.  This node is used by M:I2C_SUBM@0:WRITE_MO@0:SR_PISO@0:FFD_CLRN@12:OR_NOTAN@1:NOR@0:PMOS-4@2.
WARNING: Less than two connections to node I2C_SUBM@0:WRITE_MO@0:SR_PISO@0:FFD_CLRN@13:CLK_NOSO@0:NOR@0:PMOS-4@2_B.  This node is used by M:I2C_SUBM@0:WRITE_MO@0:SR_PISO@0:FFD_CLRN@13:CLK_NOSO@0:NOR@0:PMOS-4@2.
WARNING: Less than two connections to node I2C_SUBM@0:WRITE_MO@0:SR_PISO@0:FFD_CLRN@13:CLK_NOSO@0:NOR@1:PMOS-4@2_B.  This node is used by M:I2C_SUBM@0:WRITE_MO@0:SR_PISO@0:FFD_CLRN@13:CLK_NOSO@0:NOR@1:PMOS-4@2.
WARNING: Less than two connections to node I2C_SUBM@0:WRITE_MO@0:SR_PISO@0:FFD_CLRN@13:NAND@0:PMOS-4@1_B.  This node is used by M:I2C_SUBM@0:WRITE_MO@0:SR_PISO@0:FFD_CLRN@13:NAND@0:PMOS-4@1.
WARNING: Less than two connections to node I2C_SUBM@0:WRITE_MO@0:SR_PISO@0:FFD_CLRN@13:NAND@1:PMOS-4@1_B.  This node is used by M:I2C_SUBM@0:WRITE_MO@0:SR_PISO@0:FFD_CLRN@13:NAND@1:PMOS-4@1.
WARNING: Less than two connections to node I2C_SUBM@0:WRITE_MO@0:SR_PISO@0:FFD_CLRN@13:OR_NOTAN@0:NOR@0:PMOS-4@2_B.  This node is used by M:I2C_SUBM@0:WRITE_MO@0:SR_PISO@0:FFD_CLRN@13:OR_NOTAN@0:NOR@0:PMOS-4@2.
WARNING: Less than two connections to node I2C_SUBM@0:WRITE_MO@0:SR_PISO@0:FFD_CLRN@13:OR_NOTAN@1:NOR@0:PMOS-4@2_B.  This node is used by M:I2C_SUBM@0:WRITE_MO@0:SR_PISO@0:FFD_CLRN@13:OR_NOTAN@1:NOR@0:PMOS-4@2.
WARNING: Less than two connections to node I2C_SUBM@0:WRITE_MO@0:SR_PISO@0:FFD_CLRN@14:CLK_NOSO@0:NOR@0:PMOS-4@2_B.  This node is used by M:I2C_SUBM@0:WRITE_MO@0:SR_PISO@0:FFD_CLRN@14:CLK_NOSO@0:NOR@0:PMOS-4@2.
WARNING: Less than two connections to node I2C_SUBM@0:WRITE_MO@0:SR_PISO@0:FFD_CLRN@14:CLK_NOSO@0:NOR@1:PMOS-4@2_B.  This node is used by M:I2C_SUBM@0:WRITE_MO@0:SR_PISO@0:FFD_CLRN@14:CLK_NOSO@0:NOR@1:PMOS-4@2.
WARNING: Less than two connections to node I2C_SUBM@0:WRITE_MO@0:SR_PISO@0:FFD_CLRN@14:NAND@0:PMOS-4@1_B.  This node is used by M:I2C_SUBM@0:WRITE_MO@0:SR_PISO@0:FFD_CLRN@14:NAND@0:PMOS-4@1.
WARNING: Less than two connections to node I2C_SUBM@0:WRITE_MO@0:SR_PISO@0:FFD_CLRN@14:NAND@1:PMOS-4@1_B.  This node is used by M:I2C_SUBM@0:WRITE_MO@0:SR_PISO@0:FFD_CLRN@14:NAND@1:PMOS-4@1.
WARNING: Less than two connections to node I2C_SUBM@0:WRITE_MO@0:SR_PISO@0:FFD_CLRN@14:OR_NOTAN@0:NOR@0:PMOS-4@2_B.  This node is used by M:I2C_SUBM@0:WRITE_MO@0:SR_PISO@0:FFD_CLRN@14:OR_NOTAN@0:NOR@0:PMOS-4@2.
WARNING: Less than two connections to node I2C_SUBM@0:WRITE_MO@0:SR_PISO@0:FFD_CLRN@14:OR_NOTAN@1:NOR@0:PMOS-4@2_B.  This node is used by M:I2C_SUBM@0:WRITE_MO@0:SR_PISO@0:FFD_CLRN@14:OR_NOTAN@1:NOR@0:PMOS-4@2.
WARNING: Less than two connections to node I2C_SUBM@0:WRITE_MO@0:SR_PISO@0:FFD_CLRN@15:CLK_NOSO@0:NOR@0:PMOS-4@2_B.  This node is used by M:I2C_SUBM@0:WRITE_MO@0:SR_PISO@0:FFD_CLRN@15:CLK_NOSO@0:NOR@0:PMOS-4@2.
WARNING: Less than two connections to node I2C_SUBM@0:WRITE_MO@0:SR_PISO@0:FFD_CLRN@15:CLK_NOSO@0:NOR@1:PMOS-4@2_B.  This node is used by M:I2C_SUBM@0:WRITE_MO@0:SR_PISO@0:FFD_CLRN@15:CLK_NOSO@0:NOR@1:PMOS-4@2.
WARNING: Less than two connections to node I2C_SUBM@0:WRITE_MO@0:SR_PISO@0:FFD_CLRN@15:NAND@0:PMOS-4@1_B.  This node is used by M:I2C_SUBM@0:WRITE_MO@0:SR_PISO@0:FFD_CLRN@15:NAND@0:PMOS-4@1.
WARNING: Less than two connections to node I2C_SUBM@0:WRITE_MO@0:SR_PISO@0:FFD_CLRN@15:NAND@1:PMOS-4@1_B.  This node is used by M:I2C_SUBM@0:WRITE_MO@0:SR_PISO@0:FFD_CLRN@15:NAND@1:PMOS-4@1.
WARNING: Less than two connections to node I2C_SUBM@0:WRITE_MO@0:SR_PISO@0:FFD_CLRN@15:OR_NOTAN@0:NOR@0:PMOS-4@2_B.  This node is used by M:I2C_SUBM@0:WRITE_MO@0:SR_PISO@0:FFD_CLRN@15:OR_NOTAN@0:NOR@0:PMOS-4@2.
WARNING: Less than two connections to node I2C_SUBM@0:WRITE_MO@0:SR_PISO@0:FFD_CLRN@15:OR_NOTAN@1:NOR@0:PMOS-4@2_B.  This node is used by M:I2C_SUBM@0:WRITE_MO@0:SR_PISO@0:FFD_CLRN@15:OR_NOTAN@1:NOR@0:PMOS-4@2.
WARNING: Less than two connections to node I2C_SUBM@0:WRITE_MO@0:SR_PISO@0:FFD_CLRN@16:CLK_NOSO@0:NOR@0:PMOS-4@2_B.  This node is used by M:I2C_SUBM@0:WRITE_MO@0:SR_PISO@0:FFD_CLRN@16:CLK_NOSO@0:NOR@0:PMOS-4@2.
WARNING: Less than two connections to node I2C_SUBM@0:WRITE_MO@0:SR_PISO@0:FFD_CLRN@16:CLK_NOSO@0:NOR@1:PMOS-4@2_B.  This node is used by M:I2C_SUBM@0:WRITE_MO@0:SR_PISO@0:FFD_CLRN@16:CLK_NOSO@0:NOR@1:PMOS-4@2.
WARNING: Less than two connections to node I2C_SUBM@0:WRITE_MO@0:SR_PISO@0:FFD_CLRN@16:NAND@0:PMOS-4@1_B.  This node is used by M:I2C_SUBM@0:WRITE_MO@0:SR_PISO@0:FFD_CLRN@16:NAND@0:PMOS-4@1.
WARNING: Less than two connections to node I2C_SUBM@0:WRITE_MO@0:SR_PISO@0:FFD_CLRN@16:NAND@1:PMOS-4@1_B.  This node is used by M:I2C_SUBM@0:WRITE_MO@0:SR_PISO@0:FFD_CLRN@16:NAND@1:PMOS-4@1.
WARNING: Less than two connections to node I2C_SUBM@0:WRITE_MO@0:SR_PISO@0:FFD_CLRN@16:OR_NOTAN@0:NOR@0:PMOS-4@2_B.  This node is used by M:I2C_SUBM@0:WRITE_MO@0:SR_PISO@0:FFD_CLRN@16:OR_NOTAN@0:NOR@0:PMOS-4@2.
WARNING: Less than two connections to node I2C_SUBM@0:WRITE_MO@0:SR_PISO@0:FFD_CLRN@16:OR_NOTAN@1:NOR@0:PMOS-4@2_B.  This node is used by M:I2C_SUBM@0:WRITE_MO@0:SR_PISO@0:FFD_CLRN@16:OR_NOTAN@1:NOR@0:PMOS-4@2.
WARNING: Less than two connections to node I2C_SUBM@0:WRITE_MO@0:SR_PISO@0:NAND@0:PMOS-4@1_B.  This node is used by M:I2C_SUBM@0:WRITE_MO@0:SR_PISO@0:NAND@0:PMOS-4@1.
WARNING: Less than two connections to node I2C_SUBM@0:WRITE_MO@0:SR_PISO@0:NAND@1:PMOS-4@1_B.  This node is used by M:I2C_SUBM@0:WRITE_MO@0:SR_PISO@0:NAND@1:PMOS-4@1.
WARNING: Less than two connections to node I2C_SUBM@0:WRITE_MO@0:SR_PISO@0:NAND@2:PMOS-4@1_B.  This node is used by M:I2C_SUBM@0:WRITE_MO@0:SR_PISO@0:NAND@2:PMOS-4@1.
WARNING: Less than two connections to node I2C_SUBM@0:WRITE_MO@0:SR_PISO@0:NAND@3:PMOS-4@1_B.  This node is used by M:I2C_SUBM@0:WRITE_MO@0:SR_PISO@0:NAND@3:PMOS-4@1.
WARNING: Less than two connections to node I2C_SUBM@0:WRITE_MO@0:SR_PISO@0:NAND@4:PMOS-4@1_B.  This node is used by M:I2C_SUBM@0:WRITE_MO@0:SR_PISO@0:NAND@4:PMOS-4@1.
WARNING: Less than two connections to node I2C_SUBM@0:WRITE_MO@0:SR_PISO@0:NAND@5:PMOS-4@1_B.  This node is used by M:I2C_SUBM@0:WRITE_MO@0:SR_PISO@0:NAND@5:PMOS-4@1.
WARNING: Less than two connections to node I2C_SUBM@0:WRITE_MO@0:SR_PISO@0:NAND@6:PMOS-4@1_B.  This node is used by M:I2C_SUBM@0:WRITE_MO@0:SR_PISO@0:NAND@6:PMOS-4@1.
WARNING: Less than two connections to node I2C_SUBM@0:WRITE_MO@0:SR_PISO@0:NAND@7:PMOS-4@1_B.  This node is used by M:I2C_SUBM@0:WRITE_MO@0:SR_PISO@0:NAND@7:PMOS-4@1.
WARNING: Less than two connections to node I2C_SUBM@0:WRITE_MO@0:SR_PISO@0:NAND@8:PMOS-4@1_B.  This node is used by M:I2C_SUBM@0:WRITE_MO@0:SR_PISO@0:NAND@8:PMOS-4@1.
WARNING: Less than two connections to node I2C_SUBM@0:WRITE_MO@0:SR_PISO@0:NAND@9:PMOS-4@1_B.  This node is used by M:I2C_SUBM@0:WRITE_MO@0:SR_PISO@0:NAND@9:PMOS-4@1.
WARNING: Less than two connections to node I2C_SUBM@0:WRITE_MO@0:SR_PISO@0:NAND@10:PMOS-4@1_B.  This node is used by M:I2C_SUBM@0:WRITE_MO@0:SR_PISO@0:NAND@10:PMOS-4@1.
WARNING: Less than two connections to node I2C_SUBM@0:WRITE_MO@0:SR_PISO@0:NAND@11:PMOS-4@1_B.  This node is used by M:I2C_SUBM@0:WRITE_MO@0:SR_PISO@0:NAND@11:PMOS-4@1.
WARNING: Less than two connections to node I2C_SUBM@0:WRITE_MO@0:SR_PISO@0:NAND@12:PMOS-4@1_B.  This node is used by M:I2C_SUBM@0:WRITE_MO@0:SR_PISO@0:NAND@12:PMOS-4@1.
WARNING: Less than two connections to node I2C_SUBM@0:WRITE_MO@0:SR_PISO@0:NAND@13:PMOS-4@1_B.  This node is used by M:I2C_SUBM@0:WRITE_MO@0:SR_PISO@0:NAND@13:PMOS-4@1.
WARNING: Less than two connections to node I2C_SUBM@0:WRITE_MO@0:SR_PISO@0:NAND@14:PMOS-4@1_B.  This node is used by M:I2C_SUBM@0:WRITE_MO@0:SR_PISO@0:NAND@14:PMOS-4@1.
WARNING: Less than two connections to node I2C_SUBM@0:WRITE_MO@0:SR_PISO@0:NAND@15:PMOS-4@1_B.  This node is used by M:I2C_SUBM@0:WRITE_MO@0:SR_PISO@0:NAND@15:PMOS-4@1.
WARNING: Less than two connections to node I2C_SUBM@0:WRITE_MO@0:SR_PISO@0:NAND@16:PMOS-4@1_B.  This node is used by M:I2C_SUBM@0:WRITE_MO@0:SR_PISO@0:NAND@16:PMOS-4@1.
WARNING: Less than two connections to node SS_DETEC@0:NMOS-4@0_B.  This node is used by M:SS_DETEC@0:NMOS-4@0.
WARNING: Less than two connections to node NET@9.  This node is used by M:SS_DETEC@0:NMOS-4@1.
WARNING: Less than two connections to node SS_DETEC@0:NMOS-4@1_B.  This node is used by M:SS_DETEC@0:NMOS-4@1.
WARNING: Less than two connections to node SS_DETEC@0:FFD_CLRN@0:CLK_NOSO@0:NOR@0:PMOS-4@2_B.  This node is used by M:SS_DETEC@0:FFD_CLRN@0:CLK_NOSO@0:NOR@0:PMOS-4@2.
WARNING: Less than two connections to node SS_DETEC@0:FFD_CLRN@0:CLK_NOSO@0:NOR@1:PMOS-4@2_B.  This node is used by M:SS_DETEC@0:FFD_CLRN@0:CLK_NOSO@0:NOR@1:PMOS-4@2.
WARNING: Less than two connections to node SS_DETEC@0:FFD_CLRN@0:NAND@0:PMOS-4@1_B.  This node is used by M:SS_DETEC@0:FFD_CLRN@0:NAND@0:PMOS-4@1.
WARNING: Less than two connections to node SS_DETEC@0:FFD_CLRN@0:NAND@1:PMOS-4@1_B.  This node is used by M:SS_DETEC@0:FFD_CLRN@0:NAND@1:PMOS-4@1.
WARNING: Less than two connections to node SS_DETEC@0:FFD_CLRN@0:OR_NOTAN@0:NOR@0:PMOS-4@2_B.  This node is used by M:SS_DETEC@0:FFD_CLRN@0:OR_NOTAN@0:NOR@0:PMOS-4@2.
WARNING: Less than two connections to node SS_DETEC@0:FFD_CLRN@0:OR_NOTAN@1:NOR@0:PMOS-4@2_B.  This node is used by M:SS_DETEC@0:FFD_CLRN@0:OR_NOTAN@1:NOR@0:PMOS-4@2.
WARNING: Less than two connections to node SS_DETEC@0:FFD_CLRN@1:CLK_NOSO@0:NOR@0:PMOS-4@2_B.  This node is used by M:SS_DETEC@0:FFD_CLRN@1:CLK_NOSO@0:NOR@0:PMOS-4@2.
WARNING: Less than two connections to node SS_DETEC@0:FFD_CLRN@1:CLK_NOSO@0:NOR@1:PMOS-4@2_B.  This node is used by M:SS_DETEC@0:FFD_CLRN@1:CLK_NOSO@0:NOR@1:PMOS-4@2.
WARNING: Less than two connections to node SS_DETEC@0:FFD_CLRN@1:NAND@0:PMOS-4@1_B.  This node is used by M:SS_DETEC@0:FFD_CLRN@1:NAND@0:PMOS-4@1.
WARNING: Less than two connections to node SS_DETEC@0:FFD_CLRN@1:NAND@1:PMOS-4@1_B.  This node is used by M:SS_DETEC@0:FFD_CLRN@1:NAND@1:PMOS-4@1.
WARNING: Less than two connections to node SS_DETEC@0:FFD_CLRN@1:OR_NOTAN@0:NOR@0:PMOS-4@2_B.  This node is used by M:SS_DETEC@0:FFD_CLRN@1:OR_NOTAN@0:NOR@0:PMOS-4@2.
WARNING: Less than two connections to node SS_DETEC@0:FFD_CLRN@1:OR_NOTAN@1:NOR@0:PMOS-4@2_B.  This node is used by M:SS_DETEC@0:FFD_CLRN@1:OR_NOTAN@1:NOR@0:PMOS-4@2.
Warning: Pd = 0 is less than W.
Warning: Ps = 0 is less than W.
Warning: Pd = 0 is less than W.
Warning: Ps = 0 is less than W.
Early termination of direct N-R iteration.
Direct Newton iteration failed to find .op point.  (Use ".option noopiter" to skip.)
Starting Gmin stepping
Gmin = 10
Gmin = 1.07374
Gmin = 0.115292
Gmin = 0.0123794
Gmin = 0.00132923
Gmin = 0.000142725
Gmin = 1.5325e-005
Gmin = 1.6455e-006
Gmin = 1.76685e-007
Gmin = 1.89714e-008
Gmin = 2.03704e-009
Gmin = 2.18725e-010
Gmin = 2.34854e-011
Gmin = 2.52173e-012
Gmin = 2.70769e-013
Gmin = 0
Gmin stepping succeeded in finding the operating point.

Ignoring empty pin current: Ix(i2c_subm@0:scl_w)
Ignoring empty pin current: Ix(i2c_subm@0:scl_w)

Date: Fri Jul 19 03:53:27 2024
Total elapsed time: 947.293 seconds.

tnom = 27
temp = 27
method = modified trap
totiter = 191420
traniter = 190961
tranpoints = 58084
accept = 44584
rejected = 13500
matrix size = 2135
fillins = 8144
solver = Normal
Thread vector: 2761.9/999.0[12] 982.1/235.7[12] 701.5/390.1[12] 119.8/59.2[10]  2592/500
Matrix Compiler1: 10.07 MB object code size  4620.8/2827.4/[2891.9]
Matrix Compiler2: 778.52 KB object code size  820.4/653.7/[415.3]

