Circuit: *** SPICE deck for cell set_reset{sch} from library ADCD_Hipperdinger

Warning: Multiple definitions of model "pmost81" Type: BSIM3
Warning: Multiple definitions of model "pmost51" Type: BSIM3
Warning: Multiple definitions of model "pmost42" Type: BSIM3
Warning: Multiple definitions of model "pmost39" Type: BSIM3
Warning: Multiple definitions of model "pmost36" Type: BSIM3
Warning: Multiple definitions of model "nmost81" Type: BSIM3
Warning: Multiple definitions of model "nmost51" Type: BSIM3
Warning: Multiple definitions of model "nmost42" Type: BSIM3
Warning: Multiple definitions of model "nmost39" Type: BSIM3
Warning: Multiple definitions of model "nmost36" Type: BSIM3
Ignoring BSIM parameter ACM
Ignoring BSIM parameter HDIF
Ignoring BSIM parameter TLEV
Ignoring BSIM parameter ACM
Ignoring BSIM parameter HDIF
Ignoring BSIM parameter TLEV
WARNING: Node NOR@0:PMOS-4@2_B is floating.
WARNING: Node NOR@1:PMOS-4@2_B is floating.

WARNING: Less than two connections to node NOR@0:PMOS-4@2_B.  This node is used by M:NOR@0:PMOS-4@2.
WARNING: Less than two connections to node NOR@1:PMOS-4@2_B.  This node is used by M:NOR@1:PMOS-4@2.
Warning: Pd = 0 is less than W.
Warning: Ps = 0 is less than W.
Warning: Pd = 0 is less than W.
Warning: Ps = 0 is less than W.
Direct Newton iteration for .op point succeeded.

Date: Tue Jun 25 20:44:04 2024
Total elapsed time: 0.047 seconds.

tnom = 27
temp = 27
method = modified trap
totiter = 5043
traniter = 5015
tranpoints = 1794
accept = 1627
rejected = 167
matrix size = 12
fillins = 4
solver = Normal
Matrix Compiler1: 1.15 KB object code size  0.2/0.1/[0.1]
Matrix Compiler2: 1.22 KB object code size  0.1/0.1/[0.1]

