Circuit: *** SPICE deck for cell Signal_bfr_CLK{sch} from library ADCD_Hipperdinger

Warning: Multiple definitions of model "pmost81" Type: BSIM3
Warning: Multiple definitions of model "pmost51" Type: BSIM3
Warning: Multiple definitions of model "pmost42" Type: BSIM3
Warning: Multiple definitions of model "pmost39" Type: BSIM3
Warning: Multiple definitions of model "pmost36" Type: BSIM3
Warning: Multiple definitions of model "nmost81" Type: BSIM3
Warning: Multiple definitions of model "nmost51" Type: BSIM3
Warning: Multiple definitions of model "nmost42" Type: BSIM3
Warning: Multiple definitions of model "nmost39" Type: BSIM3
Warning: Multiple definitions of model "nmost36" Type: BSIM3
Ignoring BSIM parameter ACM
Ignoring BSIM parameter HDIF
Ignoring BSIM parameter TLEV
Ignoring BSIM parameter ACM
Ignoring BSIM parameter HDIF
Ignoring BSIM parameter TLEV
WARNING: Node NOR@0:PMOS-4@2_B is floating.
WARNING: Node NOR@1:PMOS-4@2_B is floating.

WARNING: Less than two connections to node NOR@0:PMOS-4@2_B.  This node is used by M:NOR@0:PMOS-4@2.
WARNING: Less than two connections to node NOR@1:PMOS-4@2_B.  This node is used by M:NOR@1:PMOS-4@2.
Warning: Pd = 0 is less than W.
Warning: Ps = 0 is less than W.
Warning: Pd = 0 is less than W.
Warning: Ps = 0 is less than W.
Direct Newton iteration for .op point succeeded.

Date: Tue Jun 25 17:49:47 2024
Total elapsed time: 0.372 seconds.

tnom = 27
temp = 27
method = modified trap
totiter = 6832
traniter = 6806
tranpoints = 2155
accept = 1857
rejected = 298
matrix size = 20
fillins = 14
solver = Normal
Thread vector: 18.6/8.7[2] 4.0/3.4[2] 1.1/3.3[1] 0.1/1.8[1]  2592/500
Matrix Compiler1:     143 opcodes  0.5/[0.3]/0.3
Matrix Compiler2: 2.40 KB object code size  0.3/0.5/[0.2]

