Circuit: *** SPICE deck for cell SS_detector_original{sch} from library ADCD_Hipperdinger

Warning: Multiple definitions of model "pmost81" Type: BSIM3
Warning: Multiple definitions of model "pmost51" Type: BSIM3
Warning: Multiple definitions of model "pmost42" Type: BSIM3
Warning: Multiple definitions of model "pmost39" Type: BSIM3
Warning: Multiple definitions of model "pmost36" Type: BSIM3
Warning: Multiple definitions of model "nmost81" Type: BSIM3
Warning: Multiple definitions of model "nmost51" Type: BSIM3
Warning: Multiple definitions of model "nmost42" Type: BSIM3
Warning: Multiple definitions of model "nmost39" Type: BSIM3
Warning: Multiple definitions of model "nmost36" Type: BSIM3
Ignoring BSIM parameter ACM
Ignoring BSIM parameter HDIF
Ignoring BSIM parameter TLEV
Ignoring BSIM parameter ACM
Ignoring BSIM parameter HDIF
Ignoring BSIM parameter TLEV
WARNING: Node SDA_WRITE is floating.
WARNING: Node NMOS-4@0_B is floating.
WARNING: Node SCL_WRITE is floating.
WARNING: Node NMOS-4@1_B is floating.
WARNING: Node FFD_CLRN@0:CLK_NOSO@0:NOR@0:PMOS-4@2_B is floating.
WARNING: Node FFD_CLRN@0:CLK_NOSO@0:NOR@1:PMOS-4@2_B is floating.
WARNING: Node FFD_CLRN@0:NAND@0:PMOS-4@1_B is floating.
WARNING: Node FFD_CLRN@0:NAND@1:PMOS-4@1_B is floating.
WARNING: Node FFD_CLRN@0:OR_NOTAN@0:NOR@0:PMOS-4@2_B is floating.
WARNING: Node FFD_CLRN@0:OR_NOTAN@1:NOR@0:PMOS-4@2_B is floating.
WARNING: Node FFD_CLRN@1:CLK_NOSO@0:NOR@0:PMOS-4@2_B is floating.
WARNING: Node FFD_CLRN@1:CLK_NOSO@0:NOR@1:PMOS-4@2_B is floating.
WARNING: Node FFD_CLRN@1:NAND@0:PMOS-4@1_B is floating.
WARNING: Node FFD_CLRN@1:NAND@1:PMOS-4@1_B is floating.
WARNING: Node FFD_CLRN@1:OR_NOTAN@0:NOR@0:PMOS-4@2_B is floating.
WARNING: Node FFD_CLRN@1:OR_NOTAN@1:NOR@0:PMOS-4@2_B is floating.

WARNING: Less than two connections to node SDA_WRITE.  This node is used by MNMOS-4@0.
WARNING: Less than two connections to node NMOS-4@0_B.  This node is used by MNMOS-4@0.
WARNING: Less than two connections to node SCL_WRITE.  This node is used by MNMOS-4@1.
WARNING: Less than two connections to node NMOS-4@1_B.  This node is used by MNMOS-4@1.
WARNING: Less than two connections to node FFD_CLRN@0:CLK_NOSO@0:NOR@0:PMOS-4@2_B.  This node is used by M:FFD_CLRN@0:CLK_NOSO@0:NOR@0:PMOS-4@2.
WARNING: Less than two connections to node FFD_CLRN@0:CLK_NOSO@0:NOR@1:PMOS-4@2_B.  This node is used by M:FFD_CLRN@0:CLK_NOSO@0:NOR@1:PMOS-4@2.
WARNING: Less than two connections to node FFD_CLRN@0:NAND@0:PMOS-4@1_B.  This node is used by M:FFD_CLRN@0:NAND@0:PMOS-4@1.
WARNING: Less than two connections to node FFD_CLRN@0:NAND@1:PMOS-4@1_B.  This node is used by M:FFD_CLRN@0:NAND@1:PMOS-4@1.
WARNING: Less than two connections to node FFD_CLRN@0:OR_NOTAN@0:NOR@0:PMOS-4@2_B.  This node is used by M:FFD_CLRN@0:OR_NOTAN@0:NOR@0:PMOS-4@2.
WARNING: Less than two connections to node FFD_CLRN@0:OR_NOTAN@1:NOR@0:PMOS-4@2_B.  This node is used by M:FFD_CLRN@0:OR_NOTAN@1:NOR@0:PMOS-4@2.
WARNING: Less than two connections to node FFD_CLRN@1:CLK_NOSO@0:NOR@0:PMOS-4@2_B.  This node is used by M:FFD_CLRN@1:CLK_NOSO@0:NOR@0:PMOS-4@2.
WARNING: Less than two connections to node FFD_CLRN@1:CLK_NOSO@0:NOR@1:PMOS-4@2_B.  This node is used by M:FFD_CLRN@1:CLK_NOSO@0:NOR@1:PMOS-4@2.
WARNING: Less than two connections to node FFD_CLRN@1:NAND@0:PMOS-4@1_B.  This node is used by M:FFD_CLRN@1:NAND@0:PMOS-4@1.
WARNING: Less than two connections to node FFD_CLRN@1:NAND@1:PMOS-4@1_B.  This node is used by M:FFD_CLRN@1:NAND@1:PMOS-4@1.
WARNING: Less than two connections to node FFD_CLRN@1:OR_NOTAN@0:NOR@0:PMOS-4@2_B.  This node is used by M:FFD_CLRN@1:OR_NOTAN@0:NOR@0:PMOS-4@2.
WARNING: Less than two connections to node FFD_CLRN@1:OR_NOTAN@1:NOR@0:PMOS-4@2_B.  This node is used by M:FFD_CLRN@1:OR_NOTAN@1:NOR@0:PMOS-4@2.
Warning: Pd = 0 is less than W.
Warning: Ps = 0 is less than W.
Warning: Pd = 0 is less than W.
Warning: Ps = 0 is less than W.
Early termination of direct N-R iteration.
Direct Newton iteration failed to find .op point.  (Use ".option noopiter" to skip.)
Starting Gmin stepping
Gmin = 10
Gmin = 1.07374
Gmin = 0.115292
Gmin = 0.0123794
Gmin = 0.00132923
Gmin = 0.000142725
Gmin = 1.5325e-005
Gmin = 1.6455e-006
Gmin = 1.76685e-007
Gmin = 1.89714e-008
Gmin = 2.03704e-009
Gmin = 2.18725e-010
Gmin = 2.34854e-011
Gmin = 2.52173e-012
Gmin = 2.70769e-013
Gmin = 0
Gmin stepping succeeded in finding the operating point.


Date: Tue Jun 25 20:32:31 2024
Total elapsed time: 0.700 seconds.

tnom = 27
temp = 27
method = modified trap
totiter = 13452
traniter = 13062
tranpoints = 3723
accept = 2970
rejected = 753
matrix size = 89
fillins = 92
solver = Normal
Thread vector: 58.5/15.9[12] 25.7/12.1[12] 11.8/5.4[12] 0.5/2.4[1]  2592/500
Matrix Compiler1: 17.03 KB object code size  5.0/2.7/[1.4]
Matrix Compiler2: 12.54 KB object code size  3.2/3.4/[0.8]

