Circuit: *** SPICE deck for cell write_module{sch} from library ADCD_Hipperdinger

Warning: Multiple definitions of model "pmost81" Type: BSIM3
Warning: Multiple definitions of model "pmost51" Type: BSIM3
Warning: Multiple definitions of model "pmost42" Type: BSIM3
Warning: Multiple definitions of model "pmost39" Type: BSIM3
Warning: Multiple definitions of model "pmost36" Type: BSIM3
Warning: Multiple definitions of model "nmost81" Type: BSIM3
Warning: Multiple definitions of model "nmost51" Type: BSIM3
Warning: Multiple definitions of model "nmost42" Type: BSIM3
Warning: Multiple definitions of model "nmost39" Type: BSIM3
Warning: Multiple definitions of model "nmost36" Type: BSIM3
Ignoring BSIM parameter ACM
Ignoring BSIM parameter HDIF
Ignoring BSIM parameter TLEV
Ignoring BSIM parameter ACM
Ignoring BSIM parameter HDIF
Ignoring BSIM parameter TLEV
WARNING: Specified period is not longer than the sum of Trise, Tfall, and Ton for vrw.  Increasing period to 1.002
WARNING: Node AND@0:NAND@0:PMOS-4@1_B is floating.
WARNING: Node AND@1:NAND@0:PMOS-4@1_B is floating.
WARNING: Node AND@2:NAND@0:PMOS-4@1_B is floating.
WARNING: Node FFD_CLRN@0:CLK_NOSO@0:NOR@0:PMOS-4@2_B is floating.
WARNING: Node FFD_CLRN@0:CLK_NOSO@0:NOR@1:PMOS-4@2_B is floating.
WARNING: Node FFD_CLRN@0:NAND@0:PMOS-4@1_B is floating.
WARNING: Node FFD_CLRN@0:NAND@1:PMOS-4@1_B is floating.
WARNING: Node FFD_CLRN@0:OR_NOTAN@0:NOR@0:PMOS-4@2_B is floating.
WARNING: Node FFD_CLRN@0:OR_NOTAN@1:NOR@0:PMOS-4@2_B is floating.
WARNING: Node FFD_CLRN@1:CLK_NOSO@0:NOR@0:PMOS-4@2_B is floating.
WARNING: Node FFD_CLRN@1:CLK_NOSO@0:NOR@1:PMOS-4@2_B is floating.
WARNING: Node FFD_CLRN@1:NAND@0:PMOS-4@1_B is floating.
WARNING: Node FFD_CLRN@1:NAND@1:PMOS-4@1_B is floating.
WARNING: Node FFD_CLRN@1:OR_NOTAN@0:NOR@0:PMOS-4@2_B is floating.
WARNING: Node FFD_CLRN@1:OR_NOTAN@1:NOR@0:PMOS-4@2_B is floating.
WARNING: Node SR_PISO@0:FFD_CLRN@0:CLK_NOSO@0:NOR@0:PMOS-4@2_B is floating.
WARNING: Node SR_PISO@0:FFD_CLRN@0:CLK_NOSO@0:NOR@1:PMOS-4@2_B is floating.
WARNING: Node SR_PISO@0:FFD_CLRN@0:NAND@0:PMOS-4@1_B is floating.
WARNING: Node SR_PISO@0:FFD_CLRN@0:NAND@1:PMOS-4@1_B is floating.
WARNING: Node SR_PISO@0:FFD_CLRN@0:OR_NOTAN@0:NOR@0:PMOS-4@2_B is floating.
WARNING: Node SR_PISO@0:FFD_CLRN@0:OR_NOTAN@1:NOR@0:PMOS-4@2_B is floating.
WARNING: Node SR_PISO@0:FFD_CLRN@1:CLK_NOSO@0:NOR@0:PMOS-4@2_B is floating.
WARNING: Node SR_PISO@0:FFD_CLRN@1:CLK_NOSO@0:NOR@1:PMOS-4@2_B is floating.
WARNING: Node SR_PISO@0:FFD_CLRN@1:NAND@0:PMOS-4@1_B is floating.
WARNING: Node SR_PISO@0:FFD_CLRN@1:NAND@1:PMOS-4@1_B is floating.
WARNING: Node SR_PISO@0:FFD_CLRN@1:OR_NOTAN@0:NOR@0:PMOS-4@2_B is floating.
WARNING: Node SR_PISO@0:FFD_CLRN@1:OR_NOTAN@1:NOR@0:PMOS-4@2_B is floating.
WARNING: Node SR_PISO@0:FFD_CLRN@2:CLK_NOSO@0:NOR@0:PMOS-4@2_B is floating.
WARNING: Node SR_PISO@0:FFD_CLRN@2:CLK_NOSO@0:NOR@1:PMOS-4@2_B is floating.
WARNING: Node SR_PISO@0:FFD_CLRN@2:NAND@0:PMOS-4@1_B is floating.
WARNING: Node SR_PISO@0:FFD_CLRN@2:NAND@1:PMOS-4@1_B is floating.
WARNING: Node SR_PISO@0:FFD_CLRN@2:OR_NOTAN@0:NOR@0:PMOS-4@2_B is floating.
WARNING: Node SR_PISO@0:FFD_CLRN@2:OR_NOTAN@1:NOR@0:PMOS-4@2_B is floating.
WARNING: Node SR_PISO@0:FFD_CLRN@3:CLK_NOSO@0:NOR@0:PMOS-4@2_B is floating.
WARNING: Node SR_PISO@0:FFD_CLRN@3:CLK_NOSO@0:NOR@1:PMOS-4@2_B is floating.
WARNING: Node SR_PISO@0:FFD_CLRN@3:NAND@0:PMOS-4@1_B is floating.
WARNING: Node SR_PISO@0:FFD_CLRN@3:NAND@1:PMOS-4@1_B is floating.
WARNING: Node SR_PISO@0:FFD_CLRN@3:OR_NOTAN@0:NOR@0:PMOS-4@2_B is floating.
WARNING: Node SR_PISO@0:FFD_CLRN@3:OR_NOTAN@1:NOR@0:PMOS-4@2_B is floating.
WARNING: Node SR_PISO@0:FFD_CLRN@4:CLK_NOSO@0:NOR@0:PMOS-4@2_B is floating.
WARNING: Node SR_PISO@0:FFD_CLRN@4:CLK_NOSO@0:NOR@1:PMOS-4@2_B is floating.
WARNING: Node SR_PISO@0:FFD_CLRN@4:NAND@0:PMOS-4@1_B is floating.
WARNING: Node SR_PISO@0:FFD_CLRN@4:NAND@1:PMOS-4@1_B is floating.
WARNING: Node SR_PISO@0:FFD_CLRN@4:OR_NOTAN@0:NOR@0:PMOS-4@2_B is floating.
WARNING: Node SR_PISO@0:FFD_CLRN@4:OR_NOTAN@1:NOR@0:PMOS-4@2_B is floating.
WARNING: Node SR_PISO@0:FFD_CLRN@5:CLK_NOSO@0:NOR@0:PMOS-4@2_B is floating.
WARNING: Node SR_PISO@0:FFD_CLRN@5:CLK_NOSO@0:NOR@1:PMOS-4@2_B is floating.
WARNING: Node SR_PISO@0:FFD_CLRN@5:NAND@0:PMOS-4@1_B is floating.
WARNING: Node SR_PISO@0:FFD_CLRN@5:NAND@1:PMOS-4@1_B is floating.
WARNING: Node SR_PISO@0:FFD_CLRN@5:OR_NOTAN@0:NOR@0:PMOS-4@2_B is floating.
WARNING: Node SR_PISO@0:FFD_CLRN@5:OR_NOTAN@1:NOR@0:PMOS-4@2_B is floating.
WARNING: Node SR_PISO@0:FFD_CLRN@6:CLK_NOSO@0:NOR@0:PMOS-4@2_B is floating.
WARNING: Node SR_PISO@0:FFD_CLRN@6:CLK_NOSO@0:NOR@1:PMOS-4@2_B is floating.
WARNING: Node SR_PISO@0:FFD_CLRN@6:NAND@0:PMOS-4@1_B is floating.
WARNING: Node SR_PISO@0:FFD_CLRN@6:NAND@1:PMOS-4@1_B is floating.
WARNING: Node SR_PISO@0:FFD_CLRN@6:OR_NOTAN@0:NOR@0:PMOS-4@2_B is floating.
WARNING: Node SR_PISO@0:FFD_CLRN@6:OR_NOTAN@1:NOR@0:PMOS-4@2_B is floating.
WARNING: Node SR_PISO@0:FFD_CLRN@7:CLK_NOSO@0:NOR@0:PMOS-4@2_B is floating.
WARNING: Node SR_PISO@0:FFD_CLRN@7:CLK_NOSO@0:NOR@1:PMOS-4@2_B is floating.
WARNING: Node SR_PISO@0:FFD_CLRN@7:NAND@0:PMOS-4@1_B is floating.
WARNING: Node SR_PISO@0:FFD_CLRN@7:NAND@1:PMOS-4@1_B is floating.
WARNING: Node SR_PISO@0:FFD_CLRN@7:OR_NOTAN@0:NOR@0:PMOS-4@2_B is floating.
WARNING: Node SR_PISO@0:FFD_CLRN@7:OR_NOTAN@1:NOR@0:PMOS-4@2_B is floating.
WARNING: Node SR_PISO@0:FFD_CLRN@8:CLK_NOSO@0:NOR@0:PMOS-4@2_B is floating.
WARNING: Node SR_PISO@0:FFD_CLRN@8:CLK_NOSO@0:NOR@1:PMOS-4@2_B is floating.
WARNING: Node SR_PISO@0:FFD_CLRN@8:NAND@0:PMOS-4@1_B is floating.
WARNING: Node SR_PISO@0:FFD_CLRN@8:NAND@1:PMOS-4@1_B is floating.
WARNING: Node SR_PISO@0:FFD_CLRN@8:OR_NOTAN@0:NOR@0:PMOS-4@2_B is floating.
WARNING: Node SR_PISO@0:FFD_CLRN@8:OR_NOTAN@1:NOR@0:PMOS-4@2_B is floating.
WARNING: Node SR_PISO@0:FFD_CLRN@9:CLK_NOSO@0:NOR@0:PMOS-4@2_B is floating.
WARNING: Node SR_PISO@0:FFD_CLRN@9:CLK_NOSO@0:NOR@1:PMOS-4@2_B is floating.
WARNING: Node SR_PISO@0:FFD_CLRN@9:NAND@0:PMOS-4@1_B is floating.
WARNING: Node SR_PISO@0:FFD_CLRN@9:NAND@1:PMOS-4@1_B is floating.
WARNING: Node SR_PISO@0:FFD_CLRN@9:OR_NOTAN@0:NOR@0:PMOS-4@2_B is floating.
WARNING: Node SR_PISO@0:FFD_CLRN@9:OR_NOTAN@1:NOR@0:PMOS-4@2_B is floating.
WARNING: Node SR_PISO@0:FFD_CLRN@10:CLK_NOSO@0:NOR@0:PMOS-4@2_B is floating.
WARNING: Node SR_PISO@0:FFD_CLRN@10:CLK_NOSO@0:NOR@1:PMOS-4@2_B is floating.
WARNING: Node SR_PISO@0:FFD_CLRN@10:NAND@0:PMOS-4@1_B is floating.
WARNING: Node SR_PISO@0:FFD_CLRN@10:NAND@1:PMOS-4@1_B is floating.
WARNING: Node SR_PISO@0:FFD_CLRN@10:OR_NOTAN@0:NOR@0:PMOS-4@2_B is floating.
WARNING: Node SR_PISO@0:FFD_CLRN@10:OR_NOTAN@1:NOR@0:PMOS-4@2_B is floating.
WARNING: Node SR_PISO@0:FFD_CLRN@11:CLK_NOSO@0:NOR@0:PMOS-4@2_B is floating.
WARNING: Node SR_PISO@0:FFD_CLRN@11:CLK_NOSO@0:NOR@1:PMOS-4@2_B is floating.
WARNING: Node SR_PISO@0:FFD_CLRN@11:NAND@0:PMOS-4@1_B is floating.
WARNING: Node SR_PISO@0:FFD_CLRN@11:NAND@1:PMOS-4@1_B is floating.
WARNING: Node SR_PISO@0:FFD_CLRN@11:OR_NOTAN@0:NOR@0:PMOS-4@2_B is floating.
WARNING: Node SR_PISO@0:FFD_CLRN@11:OR_NOTAN@1:NOR@0:PMOS-4@2_B is floating.
WARNING: Node SR_PISO@0:FFD_CLRN@12:CLK_NOSO@0:NOR@0:PMOS-4@2_B is floating.
WARNING: Node SR_PISO@0:FFD_CLRN@12:CLK_NOSO@0:NOR@1:PMOS-4@2_B is floating.
WARNING: Node SR_PISO@0:FFD_CLRN@12:NAND@0:PMOS-4@1_B is floating.
WARNING: Node SR_PISO@0:FFD_CLRN@12:NAND@1:PMOS-4@1_B is floating.
WARNING: Node SR_PISO@0:FFD_CLRN@12:OR_NOTAN@0:NOR@0:PMOS-4@2_B is floating.
WARNING: Node SR_PISO@0:FFD_CLRN@12:OR_NOTAN@1:NOR@0:PMOS-4@2_B is floating.
WARNING: Node SR_PISO@0:FFD_CLRN@13:CLK_NOSO@0:NOR@0:PMOS-4@2_B is floating.
WARNING: Node SR_PISO@0:FFD_CLRN@13:CLK_NOSO@0:NOR@1:PMOS-4@2_B is floating.
WARNING: Node SR_PISO@0:FFD_CLRN@13:NAND@0:PMOS-4@1_B is floating.
WARNING: Node SR_PISO@0:FFD_CLRN@13:NAND@1:PMOS-4@1_B is floating.
WARNING: Node SR_PISO@0:FFD_CLRN@13:OR_NOTAN@0:NOR@0:PMOS-4@2_B is floating.
WARNING: Node SR_PISO@0:FFD_CLRN@13:OR_NOTAN@1:NOR@0:PMOS-4@2_B is floating.
WARNING: Node SR_PISO@0:FFD_CLRN@14:CLK_NOSO@0:NOR@0:PMOS-4@2_B is floating.
WARNING: Node SR_PISO@0:FFD_CLRN@14:CLK_NOSO@0:NOR@1:PMOS-4@2_B is floating.
WARNING: Node SR_PISO@0:FFD_CLRN@14:NAND@0:PMOS-4@1_B is floating.
WARNING: Node SR_PISO@0:FFD_CLRN@14:NAND@1:PMOS-4@1_B is floating.
WARNING: Node SR_PISO@0:FFD_CLRN@14:OR_NOTAN@0:NOR@0:PMOS-4@2_B is floating.
WARNING: Node SR_PISO@0:FFD_CLRN@14:OR_NOTAN@1:NOR@0:PMOS-4@2_B is floating.
WARNING: Node SR_PISO@0:FFD_CLRN@15:CLK_NOSO@0:NOR@0:PMOS-4@2_B is floating.
WARNING: Node SR_PISO@0:FFD_CLRN@15:CLK_NOSO@0:NOR@1:PMOS-4@2_B is floating.
WARNING: Node SR_PISO@0:FFD_CLRN@15:NAND@0:PMOS-4@1_B is floating.
WARNING: Node SR_PISO@0:FFD_CLRN@15:NAND@1:PMOS-4@1_B is floating.
WARNING: Node SR_PISO@0:FFD_CLRN@15:OR_NOTAN@0:NOR@0:PMOS-4@2_B is floating.
WARNING: Node SR_PISO@0:FFD_CLRN@15:OR_NOTAN@1:NOR@0:PMOS-4@2_B is floating.
WARNING: Node SR_PISO@0:FFD_CLRN@16:CLK_NOSO@0:NOR@0:PMOS-4@2_B is floating.
WARNING: Node SR_PISO@0:FFD_CLRN@16:CLK_NOSO@0:NOR@1:PMOS-4@2_B is floating.
WARNING: Node SR_PISO@0:FFD_CLRN@16:NAND@0:PMOS-4@1_B is floating.
WARNING: Node SR_PISO@0:FFD_CLRN@16:NAND@1:PMOS-4@1_B is floating.
WARNING: Node SR_PISO@0:FFD_CLRN@16:OR_NOTAN@0:NOR@0:PMOS-4@2_B is floating.
WARNING: Node SR_PISO@0:FFD_CLRN@16:OR_NOTAN@1:NOR@0:PMOS-4@2_B is floating.
WARNING: Node SR_PISO@0:NAND@0:PMOS-4@1_B is floating.
WARNING: Node SR_PISO@0:NAND@1:PMOS-4@1_B is floating.
WARNING: Node SR_PISO@0:NAND@2:PMOS-4@1_B is floating.
WARNING: Node SR_PISO@0:NAND@3:PMOS-4@1_B is floating.
WARNING: Node SR_PISO@0:NAND@4:PMOS-4@1_B is floating.
WARNING: Node SR_PISO@0:NAND@5:PMOS-4@1_B is floating.
WARNING: Node SR_PISO@0:NAND@6:PMOS-4@1_B is floating.
WARNING: Node SR_PISO@0:NAND@7:PMOS-4@1_B is floating.
WARNING: Node SR_PISO@0:NAND@8:PMOS-4@1_B is floating.
WARNING: Node SR_PISO@0:NAND@9:PMOS-4@1_B is floating.
WARNING: Node SR_PISO@0:NAND@10:PMOS-4@1_B is floating.
WARNING: Node SR_PISO@0:NAND@11:PMOS-4@1_B is floating.
WARNING: Node SR_PISO@0:NAND@12:PMOS-4@1_B is floating.
WARNING: Node SR_PISO@0:NAND@13:PMOS-4@1_B is floating.
WARNING: Node SR_PISO@0:NAND@14:PMOS-4@1_B is floating.
WARNING: Node SR_PISO@0:NAND@15:PMOS-4@1_B is floating.
WARNING: Node SR_PISO@0:NAND@16:PMOS-4@1_B is floating.

WARNING: Less than two connections to node AND@0:NAND@0:PMOS-4@1_B.  This node is used by M:AND@0:NAND@0:PMOS-4@1.
WARNING: Less than two connections to node AND@1:NAND@0:PMOS-4@1_B.  This node is used by M:AND@1:NAND@0:PMOS-4@1.
WARNING: Less than two connections to node AND@2:NAND@0:PMOS-4@1_B.  This node is used by M:AND@2:NAND@0:PMOS-4@1.
WARNING: Less than two connections to node FFD_CLRN@0:CLK_NOSO@0:NOR@0:PMOS-4@2_B.  This node is used by M:FFD_CLRN@0:CLK_NOSO@0:NOR@0:PMOS-4@2.
WARNING: Less than two connections to node FFD_CLRN@0:CLK_NOSO@0:NOR@1:PMOS-4@2_B.  This node is used by M:FFD_CLRN@0:CLK_NOSO@0:NOR@1:PMOS-4@2.
WARNING: Less than two connections to node FFD_CLRN@0:NAND@0:PMOS-4@1_B.  This node is used by M:FFD_CLRN@0:NAND@0:PMOS-4@1.
WARNING: Less than two connections to node FFD_CLRN@0:NAND@1:PMOS-4@1_B.  This node is used by M:FFD_CLRN@0:NAND@1:PMOS-4@1.
WARNING: Less than two connections to node FFD_CLRN@0:OR_NOTAN@0:NOR@0:PMOS-4@2_B.  This node is used by M:FFD_CLRN@0:OR_NOTAN@0:NOR@0:PMOS-4@2.
WARNING: Less than two connections to node FFD_CLRN@0:OR_NOTAN@1:NOR@0:PMOS-4@2_B.  This node is used by M:FFD_CLRN@0:OR_NOTAN@1:NOR@0:PMOS-4@2.
WARNING: Less than two connections to node FFD_CLRN@1:CLK_NOSO@0:NOR@0:PMOS-4@2_B.  This node is used by M:FFD_CLRN@1:CLK_NOSO@0:NOR@0:PMOS-4@2.
WARNING: Less than two connections to node FFD_CLRN@1:CLK_NOSO@0:NOR@1:PMOS-4@2_B.  This node is used by M:FFD_CLRN@1:CLK_NOSO@0:NOR@1:PMOS-4@2.
WARNING: Less than two connections to node FFD_CLRN@1:NAND@0:PMOS-4@1_B.  This node is used by M:FFD_CLRN@1:NAND@0:PMOS-4@1.
WARNING: Less than two connections to node FFD_CLRN@1:NAND@1:PMOS-4@1_B.  This node is used by M:FFD_CLRN@1:NAND@1:PMOS-4@1.
WARNING: Less than two connections to node FFD_CLRN@1:OR_NOTAN@0:NOR@0:PMOS-4@2_B.  This node is used by M:FFD_CLRN@1:OR_NOTAN@0:NOR@0:PMOS-4@2.
WARNING: Less than two connections to node FFD_CLRN@1:OR_NOTAN@1:NOR@0:PMOS-4@2_B.  This node is used by M:FFD_CLRN@1:OR_NOTAN@1:NOR@0:PMOS-4@2.
WARNING: Less than two connections to node SR_PISO@0:FFD_CLRN@0:CLK_NOSO@0:NOR@0:PMOS-4@2_B.  This node is used by M:SR_PISO@0:FFD_CLRN@0:CLK_NOSO@0:NOR@0:PMOS-4@2.
WARNING: Less than two connections to node SR_PISO@0:FFD_CLRN@0:CLK_NOSO@0:NOR@1:PMOS-4@2_B.  This node is used by M:SR_PISO@0:FFD_CLRN@0:CLK_NOSO@0:NOR@1:PMOS-4@2.
WARNING: Less than two connections to node SR_PISO@0:FFD_CLRN@0:NAND@0:PMOS-4@1_B.  This node is used by M:SR_PISO@0:FFD_CLRN@0:NAND@0:PMOS-4@1.
WARNING: Less than two connections to node SR_PISO@0:FFD_CLRN@0:NAND@1:PMOS-4@1_B.  This node is used by M:SR_PISO@0:FFD_CLRN@0:NAND@1:PMOS-4@1.
WARNING: Less than two connections to node SR_PISO@0:FFD_CLRN@0:OR_NOTAN@0:NOR@0:PMOS-4@2_B.  This node is used by M:SR_PISO@0:FFD_CLRN@0:OR_NOTAN@0:NOR@0:PMOS-4@2.
WARNING: Less than two connections to node SR_PISO@0:FFD_CLRN@0:OR_NOTAN@1:NOR@0:PMOS-4@2_B.  This node is used by M:SR_PISO@0:FFD_CLRN@0:OR_NOTAN@1:NOR@0:PMOS-4@2.
WARNING: Less than two connections to node SR_PISO@0:FFD_CLRN@1:CLK_NOSO@0:NOR@0:PMOS-4@2_B.  This node is used by M:SR_PISO@0:FFD_CLRN@1:CLK_NOSO@0:NOR@0:PMOS-4@2.
WARNING: Less than two connections to node SR_PISO@0:FFD_CLRN@1:CLK_NOSO@0:NOR@1:PMOS-4@2_B.  This node is used by M:SR_PISO@0:FFD_CLRN@1:CLK_NOSO@0:NOR@1:PMOS-4@2.
WARNING: Less than two connections to node SR_PISO@0:FFD_CLRN@1:NAND@0:PMOS-4@1_B.  This node is used by M:SR_PISO@0:FFD_CLRN@1:NAND@0:PMOS-4@1.
WARNING: Less than two connections to node SR_PISO@0:FFD_CLRN@1:NAND@1:PMOS-4@1_B.  This node is used by M:SR_PISO@0:FFD_CLRN@1:NAND@1:PMOS-4@1.
WARNING: Less than two connections to node SR_PISO@0:FFD_CLRN@1:OR_NOTAN@0:NOR@0:PMOS-4@2_B.  This node is used by M:SR_PISO@0:FFD_CLRN@1:OR_NOTAN@0:NOR@0:PMOS-4@2.
WARNING: Less than two connections to node SR_PISO@0:FFD_CLRN@1:OR_NOTAN@1:NOR@0:PMOS-4@2_B.  This node is used by M:SR_PISO@0:FFD_CLRN@1:OR_NOTAN@1:NOR@0:PMOS-4@2.
WARNING: Less than two connections to node SR_PISO@0:FFD_CLRN@2:CLK_NOSO@0:NOR@0:PMOS-4@2_B.  This node is used by M:SR_PISO@0:FFD_CLRN@2:CLK_NOSO@0:NOR@0:PMOS-4@2.
WARNING: Less than two connections to node SR_PISO@0:FFD_CLRN@2:CLK_NOSO@0:NOR@1:PMOS-4@2_B.  This node is used by M:SR_PISO@0:FFD_CLRN@2:CLK_NOSO@0:NOR@1:PMOS-4@2.
WARNING: Less than two connections to node SR_PISO@0:FFD_CLRN@2:NAND@0:PMOS-4@1_B.  This node is used by M:SR_PISO@0:FFD_CLRN@2:NAND@0:PMOS-4@1.
WARNING: Less than two connections to node SR_PISO@0:FFD_CLRN@2:NAND@1:PMOS-4@1_B.  This node is used by M:SR_PISO@0:FFD_CLRN@2:NAND@1:PMOS-4@1.
WARNING: Less than two connections to node SR_PISO@0:FFD_CLRN@2:OR_NOTAN@0:NOR@0:PMOS-4@2_B.  This node is used by M:SR_PISO@0:FFD_CLRN@2:OR_NOTAN@0:NOR@0:PMOS-4@2.
WARNING: Less than two connections to node SR_PISO@0:FFD_CLRN@2:OR_NOTAN@1:NOR@0:PMOS-4@2_B.  This node is used by M:SR_PISO@0:FFD_CLRN@2:OR_NOTAN@1:NOR@0:PMOS-4@2.
WARNING: Less than two connections to node SR_PISO@0:FFD_CLRN@3:CLK_NOSO@0:NOR@0:PMOS-4@2_B.  This node is used by M:SR_PISO@0:FFD_CLRN@3:CLK_NOSO@0:NOR@0:PMOS-4@2.
WARNING: Less than two connections to node SR_PISO@0:FFD_CLRN@3:CLK_NOSO@0:NOR@1:PMOS-4@2_B.  This node is used by M:SR_PISO@0:FFD_CLRN@3:CLK_NOSO@0:NOR@1:PMOS-4@2.
WARNING: Less than two connections to node SR_PISO@0:FFD_CLRN@3:NAND@0:PMOS-4@1_B.  This node is used by M:SR_PISO@0:FFD_CLRN@3:NAND@0:PMOS-4@1.
WARNING: Less than two connections to node SR_PISO@0:FFD_CLRN@3:NAND@1:PMOS-4@1_B.  This node is used by M:SR_PISO@0:FFD_CLRN@3:NAND@1:PMOS-4@1.
WARNING: Less than two connections to node SR_PISO@0:FFD_CLRN@3:OR_NOTAN@0:NOR@0:PMOS-4@2_B.  This node is used by M:SR_PISO@0:FFD_CLRN@3:OR_NOTAN@0:NOR@0:PMOS-4@2.
WARNING: Less than two connections to node SR_PISO@0:FFD_CLRN@3:OR_NOTAN@1:NOR@0:PMOS-4@2_B.  This node is used by M:SR_PISO@0:FFD_CLRN@3:OR_NOTAN@1:NOR@0:PMOS-4@2.
WARNING: Less than two connections to node SR_PISO@0:FFD_CLRN@4:CLK_NOSO@0:NOR@0:PMOS-4@2_B.  This node is used by M:SR_PISO@0:FFD_CLRN@4:CLK_NOSO@0:NOR@0:PMOS-4@2.
WARNING: Less than two connections to node SR_PISO@0:FFD_CLRN@4:CLK_NOSO@0:NOR@1:PMOS-4@2_B.  This node is used by M:SR_PISO@0:FFD_CLRN@4:CLK_NOSO@0:NOR@1:PMOS-4@2.
WARNING: Less than two connections to node SR_PISO@0:FFD_CLRN@4:NAND@0:PMOS-4@1_B.  This node is used by M:SR_PISO@0:FFD_CLRN@4:NAND@0:PMOS-4@1.
WARNING: Less than two connections to node SR_PISO@0:FFD_CLRN@4:NAND@1:PMOS-4@1_B.  This node is used by M:SR_PISO@0:FFD_CLRN@4:NAND@1:PMOS-4@1.
WARNING: Less than two connections to node SR_PISO@0:FFD_CLRN@4:OR_NOTAN@0:NOR@0:PMOS-4@2_B.  This node is used by M:SR_PISO@0:FFD_CLRN@4:OR_NOTAN@0:NOR@0:PMOS-4@2.
WARNING: Less than two connections to node SR_PISO@0:FFD_CLRN@4:OR_NOTAN@1:NOR@0:PMOS-4@2_B.  This node is used by M:SR_PISO@0:FFD_CLRN@4:OR_NOTAN@1:NOR@0:PMOS-4@2.
WARNING: Less than two connections to node SR_PISO@0:FFD_CLRN@5:CLK_NOSO@0:NOR@0:PMOS-4@2_B.  This node is used by M:SR_PISO@0:FFD_CLRN@5:CLK_NOSO@0:NOR@0:PMOS-4@2.
WARNING: Less than two connections to node SR_PISO@0:FFD_CLRN@5:CLK_NOSO@0:NOR@1:PMOS-4@2_B.  This node is used by M:SR_PISO@0:FFD_CLRN@5:CLK_NOSO@0:NOR@1:PMOS-4@2.
WARNING: Less than two connections to node SR_PISO@0:FFD_CLRN@5:NAND@0:PMOS-4@1_B.  This node is used by M:SR_PISO@0:FFD_CLRN@5:NAND@0:PMOS-4@1.
WARNING: Less than two connections to node SR_PISO@0:FFD_CLRN@5:NAND@1:PMOS-4@1_B.  This node is used by M:SR_PISO@0:FFD_CLRN@5:NAND@1:PMOS-4@1.
WARNING: Less than two connections to node SR_PISO@0:FFD_CLRN@5:OR_NOTAN@0:NOR@0:PMOS-4@2_B.  This node is used by M:SR_PISO@0:FFD_CLRN@5:OR_NOTAN@0:NOR@0:PMOS-4@2.
WARNING: Less than two connections to node SR_PISO@0:FFD_CLRN@5:OR_NOTAN@1:NOR@0:PMOS-4@2_B.  This node is used by M:SR_PISO@0:FFD_CLRN@5:OR_NOTAN@1:NOR@0:PMOS-4@2.
WARNING: Less than two connections to node SR_PISO@0:FFD_CLRN@6:CLK_NOSO@0:NOR@0:PMOS-4@2_B.  This node is used by M:SR_PISO@0:FFD_CLRN@6:CLK_NOSO@0:NOR@0:PMOS-4@2.
WARNING: Less than two connections to node SR_PISO@0:FFD_CLRN@6:CLK_NOSO@0:NOR@1:PMOS-4@2_B.  This node is used by M:SR_PISO@0:FFD_CLRN@6:CLK_NOSO@0:NOR@1:PMOS-4@2.
WARNING: Less than two connections to node SR_PISO@0:FFD_CLRN@6:NAND@0:PMOS-4@1_B.  This node is used by M:SR_PISO@0:FFD_CLRN@6:NAND@0:PMOS-4@1.
WARNING: Less than two connections to node SR_PISO@0:FFD_CLRN@6:NAND@1:PMOS-4@1_B.  This node is used by M:SR_PISO@0:FFD_CLRN@6:NAND@1:PMOS-4@1.
WARNING: Less than two connections to node SR_PISO@0:FFD_CLRN@6:OR_NOTAN@0:NOR@0:PMOS-4@2_B.  This node is used by M:SR_PISO@0:FFD_CLRN@6:OR_NOTAN@0:NOR@0:PMOS-4@2.
WARNING: Less than two connections to node SR_PISO@0:FFD_CLRN@6:OR_NOTAN@1:NOR@0:PMOS-4@2_B.  This node is used by M:SR_PISO@0:FFD_CLRN@6:OR_NOTAN@1:NOR@0:PMOS-4@2.
WARNING: Less than two connections to node SR_PISO@0:FFD_CLRN@7:CLK_NOSO@0:NOR@0:PMOS-4@2_B.  This node is used by M:SR_PISO@0:FFD_CLRN@7:CLK_NOSO@0:NOR@0:PMOS-4@2.
WARNING: Less than two connections to node SR_PISO@0:FFD_CLRN@7:CLK_NOSO@0:NOR@1:PMOS-4@2_B.  This node is used by M:SR_PISO@0:FFD_CLRN@7:CLK_NOSO@0:NOR@1:PMOS-4@2.
WARNING: Less than two connections to node SR_PISO@0:FFD_CLRN@7:NAND@0:PMOS-4@1_B.  This node is used by M:SR_PISO@0:FFD_CLRN@7:NAND@0:PMOS-4@1.
WARNING: Less than two connections to node SR_PISO@0:FFD_CLRN@7:NAND@1:PMOS-4@1_B.  This node is used by M:SR_PISO@0:FFD_CLRN@7:NAND@1:PMOS-4@1.
WARNING: Less than two connections to node SR_PISO@0:FFD_CLRN@7:OR_NOTAN@0:NOR@0:PMOS-4@2_B.  This node is used by M:SR_PISO@0:FFD_CLRN@7:OR_NOTAN@0:NOR@0:PMOS-4@2.
WARNING: Less than two connections to node SR_PISO@0:FFD_CLRN@7:OR_NOTAN@1:NOR@0:PMOS-4@2_B.  This node is used by M:SR_PISO@0:FFD_CLRN@7:OR_NOTAN@1:NOR@0:PMOS-4@2.
WARNING: Less than two connections to node SR_PISO@0:FFD_CLRN@8:CLK_NOSO@0:NOR@0:PMOS-4@2_B.  This node is used by M:SR_PISO@0:FFD_CLRN@8:CLK_NOSO@0:NOR@0:PMOS-4@2.
WARNING: Less than two connections to node SR_PISO@0:FFD_CLRN@8:CLK_NOSO@0:NOR@1:PMOS-4@2_B.  This node is used by M:SR_PISO@0:FFD_CLRN@8:CLK_NOSO@0:NOR@1:PMOS-4@2.
WARNING: Less than two connections to node SR_PISO@0:FFD_CLRN@8:NAND@0:PMOS-4@1_B.  This node is used by M:SR_PISO@0:FFD_CLRN@8:NAND@0:PMOS-4@1.
WARNING: Less than two connections to node SR_PISO@0:FFD_CLRN@8:NAND@1:PMOS-4@1_B.  This node is used by M:SR_PISO@0:FFD_CLRN@8:NAND@1:PMOS-4@1.
WARNING: Less than two connections to node SR_PISO@0:FFD_CLRN@8:OR_NOTAN@0:NOR@0:PMOS-4@2_B.  This node is used by M:SR_PISO@0:FFD_CLRN@8:OR_NOTAN@0:NOR@0:PMOS-4@2.
WARNING: Less than two connections to node SR_PISO@0:FFD_CLRN@8:OR_NOTAN@1:NOR@0:PMOS-4@2_B.  This node is used by M:SR_PISO@0:FFD_CLRN@8:OR_NOTAN@1:NOR@0:PMOS-4@2.
WARNING: Less than two connections to node SR_PISO@0:FFD_CLRN@9:CLK_NOSO@0:NOR@0:PMOS-4@2_B.  This node is used by M:SR_PISO@0:FFD_CLRN@9:CLK_NOSO@0:NOR@0:PMOS-4@2.
WARNING: Less than two connections to node SR_PISO@0:FFD_CLRN@9:CLK_NOSO@0:NOR@1:PMOS-4@2_B.  This node is used by M:SR_PISO@0:FFD_CLRN@9:CLK_NOSO@0:NOR@1:PMOS-4@2.
WARNING: Less than two connections to node SR_PISO@0:FFD_CLRN@9:NAND@0:PMOS-4@1_B.  This node is used by M:SR_PISO@0:FFD_CLRN@9:NAND@0:PMOS-4@1.
WARNING: Less than two connections to node SR_PISO@0:FFD_CLRN@9:NAND@1:PMOS-4@1_B.  This node is used by M:SR_PISO@0:FFD_CLRN@9:NAND@1:PMOS-4@1.
WARNING: Less than two connections to node SR_PISO@0:FFD_CLRN@9:OR_NOTAN@0:NOR@0:PMOS-4@2_B.  This node is used by M:SR_PISO@0:FFD_CLRN@9:OR_NOTAN@0:NOR@0:PMOS-4@2.
WARNING: Less than two connections to node SR_PISO@0:FFD_CLRN@9:OR_NOTAN@1:NOR@0:PMOS-4@2_B.  This node is used by M:SR_PISO@0:FFD_CLRN@9:OR_NOTAN@1:NOR@0:PMOS-4@2.
WARNING: Less than two connections to node SR_PISO@0:FFD_CLRN@10:CLK_NOSO@0:NOR@0:PMOS-4@2_B.  This node is used by M:SR_PISO@0:FFD_CLRN@10:CLK_NOSO@0:NOR@0:PMOS-4@2.
WARNING: Less than two connections to node SR_PISO@0:FFD_CLRN@10:CLK_NOSO@0:NOR@1:PMOS-4@2_B.  This node is used by M:SR_PISO@0:FFD_CLRN@10:CLK_NOSO@0:NOR@1:PMOS-4@2.
WARNING: Less than two connections to node SR_PISO@0:FFD_CLRN@10:NAND@0:PMOS-4@1_B.  This node is used by M:SR_PISO@0:FFD_CLRN@10:NAND@0:PMOS-4@1.
WARNING: Less than two connections to node SR_PISO@0:FFD_CLRN@10:NAND@1:PMOS-4@1_B.  This node is used by M:SR_PISO@0:FFD_CLRN@10:NAND@1:PMOS-4@1.
WARNING: Less than two connections to node SR_PISO@0:FFD_CLRN@10:OR_NOTAN@0:NOR@0:PMOS-4@2_B.  This node is used by M:SR_PISO@0:FFD_CLRN@10:OR_NOTAN@0:NOR@0:PMOS-4@2.
WARNING: Less than two connections to node SR_PISO@0:FFD_CLRN@10:OR_NOTAN@1:NOR@0:PMOS-4@2_B.  This node is used by M:SR_PISO@0:FFD_CLRN@10:OR_NOTAN@1:NOR@0:PMOS-4@2.
WARNING: Less than two connections to node SR_PISO@0:FFD_CLRN@11:CLK_NOSO@0:NOR@0:PMOS-4@2_B.  This node is used by M:SR_PISO@0:FFD_CLRN@11:CLK_NOSO@0:NOR@0:PMOS-4@2.
WARNING: Less than two connections to node SR_PISO@0:FFD_CLRN@11:CLK_NOSO@0:NOR@1:PMOS-4@2_B.  This node is used by M:SR_PISO@0:FFD_CLRN@11:CLK_NOSO@0:NOR@1:PMOS-4@2.
WARNING: Less than two connections to node SR_PISO@0:FFD_CLRN@11:NAND@0:PMOS-4@1_B.  This node is used by M:SR_PISO@0:FFD_CLRN@11:NAND@0:PMOS-4@1.
WARNING: Less than two connections to node SR_PISO@0:FFD_CLRN@11:NAND@1:PMOS-4@1_B.  This node is used by M:SR_PISO@0:FFD_CLRN@11:NAND@1:PMOS-4@1.
WARNING: Less than two connections to node SR_PISO@0:FFD_CLRN@11:OR_NOTAN@0:NOR@0:PMOS-4@2_B.  This node is used by M:SR_PISO@0:FFD_CLRN@11:OR_NOTAN@0:NOR@0:PMOS-4@2.
WARNING: Less than two connections to node SR_PISO@0:FFD_CLRN@11:OR_NOTAN@1:NOR@0:PMOS-4@2_B.  This node is used by M:SR_PISO@0:FFD_CLRN@11:OR_NOTAN@1:NOR@0:PMOS-4@2.
WARNING: Less than two connections to node SR_PISO@0:FFD_CLRN@12:CLK_NOSO@0:NOR@0:PMOS-4@2_B.  This node is used by M:SR_PISO@0:FFD_CLRN@12:CLK_NOSO@0:NOR@0:PMOS-4@2.
WARNING: Less than two connections to node SR_PISO@0:FFD_CLRN@12:CLK_NOSO@0:NOR@1:PMOS-4@2_B.  This node is used by M:SR_PISO@0:FFD_CLRN@12:CLK_NOSO@0:NOR@1:PMOS-4@2.
WARNING: Less than two connections to node SR_PISO@0:FFD_CLRN@12:NAND@0:PMOS-4@1_B.  This node is used by M:SR_PISO@0:FFD_CLRN@12:NAND@0:PMOS-4@1.
WARNING: Less than two connections to node SR_PISO@0:FFD_CLRN@12:NAND@1:PMOS-4@1_B.  This node is used by M:SR_PISO@0:FFD_CLRN@12:NAND@1:PMOS-4@1.
WARNING: Less than two connections to node SR_PISO@0:FFD_CLRN@12:OR_NOTAN@0:NOR@0:PMOS-4@2_B.  This node is used by M:SR_PISO@0:FFD_CLRN@12:OR_NOTAN@0:NOR@0:PMOS-4@2.
WARNING: Less than two connections to node SR_PISO@0:FFD_CLRN@12:OR_NOTAN@1:NOR@0:PMOS-4@2_B.  This node is used by M:SR_PISO@0:FFD_CLRN@12:OR_NOTAN@1:NOR@0:PMOS-4@2.
WARNING: Less than two connections to node SR_PISO@0:FFD_CLRN@13:CLK_NOSO@0:NOR@0:PMOS-4@2_B.  This node is used by M:SR_PISO@0:FFD_CLRN@13:CLK_NOSO@0:NOR@0:PMOS-4@2.
WARNING: Less than two connections to node SR_PISO@0:FFD_CLRN@13:CLK_NOSO@0:NOR@1:PMOS-4@2_B.  This node is used by M:SR_PISO@0:FFD_CLRN@13:CLK_NOSO@0:NOR@1:PMOS-4@2.
WARNING: Less than two connections to node SR_PISO@0:FFD_CLRN@13:NAND@0:PMOS-4@1_B.  This node is used by M:SR_PISO@0:FFD_CLRN@13:NAND@0:PMOS-4@1.
WARNING: Less than two connections to node SR_PISO@0:FFD_CLRN@13:NAND@1:PMOS-4@1_B.  This node is used by M:SR_PISO@0:FFD_CLRN@13:NAND@1:PMOS-4@1.
WARNING: Less than two connections to node SR_PISO@0:FFD_CLRN@13:OR_NOTAN@0:NOR@0:PMOS-4@2_B.  This node is used by M:SR_PISO@0:FFD_CLRN@13:OR_NOTAN@0:NOR@0:PMOS-4@2.
WARNING: Less than two connections to node SR_PISO@0:FFD_CLRN@13:OR_NOTAN@1:NOR@0:PMOS-4@2_B.  This node is used by M:SR_PISO@0:FFD_CLRN@13:OR_NOTAN@1:NOR@0:PMOS-4@2.
WARNING: Less than two connections to node SR_PISO@0:FFD_CLRN@14:CLK_NOSO@0:NOR@0:PMOS-4@2_B.  This node is used by M:SR_PISO@0:FFD_CLRN@14:CLK_NOSO@0:NOR@0:PMOS-4@2.
WARNING: Less than two connections to node SR_PISO@0:FFD_CLRN@14:CLK_NOSO@0:NOR@1:PMOS-4@2_B.  This node is used by M:SR_PISO@0:FFD_CLRN@14:CLK_NOSO@0:NOR@1:PMOS-4@2.
WARNING: Less than two connections to node SR_PISO@0:FFD_CLRN@14:NAND@0:PMOS-4@1_B.  This node is used by M:SR_PISO@0:FFD_CLRN@14:NAND@0:PMOS-4@1.
WARNING: Less than two connections to node SR_PISO@0:FFD_CLRN@14:NAND@1:PMOS-4@1_B.  This node is used by M:SR_PISO@0:FFD_CLRN@14:NAND@1:PMOS-4@1.
WARNING: Less than two connections to node SR_PISO@0:FFD_CLRN@14:OR_NOTAN@0:NOR@0:PMOS-4@2_B.  This node is used by M:SR_PISO@0:FFD_CLRN@14:OR_NOTAN@0:NOR@0:PMOS-4@2.
WARNING: Less than two connections to node SR_PISO@0:FFD_CLRN@14:OR_NOTAN@1:NOR@0:PMOS-4@2_B.  This node is used by M:SR_PISO@0:FFD_CLRN@14:OR_NOTAN@1:NOR@0:PMOS-4@2.
WARNING: Less than two connections to node SR_PISO@0:FFD_CLRN@15:CLK_NOSO@0:NOR@0:PMOS-4@2_B.  This node is used by M:SR_PISO@0:FFD_CLRN@15:CLK_NOSO@0:NOR@0:PMOS-4@2.
WARNING: Less than two connections to node SR_PISO@0:FFD_CLRN@15:CLK_NOSO@0:NOR@1:PMOS-4@2_B.  This node is used by M:SR_PISO@0:FFD_CLRN@15:CLK_NOSO@0:NOR@1:PMOS-4@2.
WARNING: Less than two connections to node SR_PISO@0:FFD_CLRN@15:NAND@0:PMOS-4@1_B.  This node is used by M:SR_PISO@0:FFD_CLRN@15:NAND@0:PMOS-4@1.
WARNING: Less than two connections to node SR_PISO@0:FFD_CLRN@15:NAND@1:PMOS-4@1_B.  This node is used by M:SR_PISO@0:FFD_CLRN@15:NAND@1:PMOS-4@1.
WARNING: Less than two connections to node SR_PISO@0:FFD_CLRN@15:OR_NOTAN@0:NOR@0:PMOS-4@2_B.  This node is used by M:SR_PISO@0:FFD_CLRN@15:OR_NOTAN@0:NOR@0:PMOS-4@2.
WARNING: Less than two connections to node SR_PISO@0:FFD_CLRN@15:OR_NOTAN@1:NOR@0:PMOS-4@2_B.  This node is used by M:SR_PISO@0:FFD_CLRN@15:OR_NOTAN@1:NOR@0:PMOS-4@2.
WARNING: Less than two connections to node SR_PISO@0:FFD_CLRN@16:CLK_NOSO@0:NOR@0:PMOS-4@2_B.  This node is used by M:SR_PISO@0:FFD_CLRN@16:CLK_NOSO@0:NOR@0:PMOS-4@2.
WARNING: Less than two connections to node SR_PISO@0:FFD_CLRN@16:CLK_NOSO@0:NOR@1:PMOS-4@2_B.  This node is used by M:SR_PISO@0:FFD_CLRN@16:CLK_NOSO@0:NOR@1:PMOS-4@2.
WARNING: Less than two connections to node SR_PISO@0:FFD_CLRN@16:NAND@0:PMOS-4@1_B.  This node is used by M:SR_PISO@0:FFD_CLRN@16:NAND@0:PMOS-4@1.
WARNING: Less than two connections to node SR_PISO@0:FFD_CLRN@16:NAND@1:PMOS-4@1_B.  This node is used by M:SR_PISO@0:FFD_CLRN@16:NAND@1:PMOS-4@1.
WARNING: Less than two connections to node SR_PISO@0:FFD_CLRN@16:OR_NOTAN@0:NOR@0:PMOS-4@2_B.  This node is used by M:SR_PISO@0:FFD_CLRN@16:OR_NOTAN@0:NOR@0:PMOS-4@2.
WARNING: Less than two connections to node SR_PISO@0:FFD_CLRN@16:OR_NOTAN@1:NOR@0:PMOS-4@2_B.  This node is used by M:SR_PISO@0:FFD_CLRN@16:OR_NOTAN@1:NOR@0:PMOS-4@2.
WARNING: Less than two connections to node SR_PISO@0:NAND@0:PMOS-4@1_B.  This node is used by M:SR_PISO@0:NAND@0:PMOS-4@1.
WARNING: Less than two connections to node SR_PISO@0:NAND@1:PMOS-4@1_B.  This node is used by M:SR_PISO@0:NAND@1:PMOS-4@1.
WARNING: Less than two connections to node SR_PISO@0:NAND@2:PMOS-4@1_B.  This node is used by M:SR_PISO@0:NAND@2:PMOS-4@1.
WARNING: Less than two connections to node SR_PISO@0:NAND@3:PMOS-4@1_B.  This node is used by M:SR_PISO@0:NAND@3:PMOS-4@1.
WARNING: Less than two connections to node SR_PISO@0:NAND@4:PMOS-4@1_B.  This node is used by M:SR_PISO@0:NAND@4:PMOS-4@1.
WARNING: Less than two connections to node SR_PISO@0:NAND@5:PMOS-4@1_B.  This node is used by M:SR_PISO@0:NAND@5:PMOS-4@1.
WARNING: Less than two connections to node SR_PISO@0:NAND@6:PMOS-4@1_B.  This node is used by M:SR_PISO@0:NAND@6:PMOS-4@1.
WARNING: Less than two connections to node SR_PISO@0:NAND@7:PMOS-4@1_B.  This node is used by M:SR_PISO@0:NAND@7:PMOS-4@1.
WARNING: Less than two connections to node SR_PISO@0:NAND@8:PMOS-4@1_B.  This node is used by M:SR_PISO@0:NAND@8:PMOS-4@1.
WARNING: Less than two connections to node SR_PISO@0:NAND@9:PMOS-4@1_B.  This node is used by M:SR_PISO@0:NAND@9:PMOS-4@1.
WARNING: Less than two connections to node SR_PISO@0:NAND@10:PMOS-4@1_B.  This node is used by M:SR_PISO@0:NAND@10:PMOS-4@1.
WARNING: Less than two connections to node SR_PISO@0:NAND@11:PMOS-4@1_B.  This node is used by M:SR_PISO@0:NAND@11:PMOS-4@1.
WARNING: Less than two connections to node SR_PISO@0:NAND@12:PMOS-4@1_B.  This node is used by M:SR_PISO@0:NAND@12:PMOS-4@1.
WARNING: Less than two connections to node SR_PISO@0:NAND@13:PMOS-4@1_B.  This node is used by M:SR_PISO@0:NAND@13:PMOS-4@1.
WARNING: Less than two connections to node SR_PISO@0:NAND@14:PMOS-4@1_B.  This node is used by M:SR_PISO@0:NAND@14:PMOS-4@1.
WARNING: Less than two connections to node SR_PISO@0:NAND@15:PMOS-4@1_B.  This node is used by M:SR_PISO@0:NAND@15:PMOS-4@1.
WARNING: Less than two connections to node SR_PISO@0:NAND@16:PMOS-4@1_B.  This node is used by M:SR_PISO@0:NAND@16:PMOS-4@1.
Warning: Pd = 0 is less than W.
Warning: Ps = 0 is less than W.
Warning: Pd = 0 is less than W.
Warning: Ps = 0 is less than W.
Early termination of direct N-R iteration.
Direct Newton iteration failed to find .op point.  (Use ".option noopiter" to skip.)
Starting Gmin stepping
Gmin = 10
Gmin = 1.07374
Gmin = 0.115292
Gmin = 0.0123794
Gmin = 0.00132923
Gmin = 0.000142725
Gmin = 1.5325e-005
Gmin = 1.6455e-006
Gmin = 1.76685e-007
Gmin = 1.89714e-008
Gmin = 2.03704e-009
Gmin = 2.18725e-010
Gmin = 2.34854e-011
Gmin = 2.52173e-012
Gmin = 2.70769e-013
Gmin = 0
Gmin stepping succeeded in finding the operating point.

Heightened Def Con from 0.81 to 0.81

Date: Sun Jul 07 20:52:50 2024
Total elapsed time: 29.844 seconds.

tnom = 27
temp = 27
method = modified trap
totiter = 81324
traniter = 80811
tranpoints = 23500
accept = 17410
rejected = 6091
matrix size = 805
fillins = 1014
solver = Normal
Thread vector: 594.3/157.4[12] 317.2/43.3[12] 87.1/38.2[12] 6.7/10.5[1]  2592/500
Matrix Compiler1: 180.79 KB object code size  99.7/46.4/[20.4]
Matrix Compiler2: 123.62 KB object code size  55.3/38.4/[11.9]

